@<TRIPOS>MOLECULE
ecer2
105 104 1 0 1
SMALL
NO_CHARGES
@<TRIPOS>CRYSIN
    8.3943    15.0313    48.7813    90.0000    90.0000    90.0000  1  1
@<TRIPOS>ATOM
       1 N1          -0.2696    -0.3637    -1.4496 NH1           1 ecer2   
       2 H2          -0.8356    -1.1873    -1.5930 HN1           1 ecer2   
       3 C3           0.2361     0.2809    -2.5681 CLN           1 ecer2   
       4 O4           0.8720     1.3314    -2.5052 OBL           1 ecer2   
       5 C5           0.0889    -0.4194    -3.9475 CTL2          1 ecer2   
       6 H6          -0.6418    -1.2474    -3.8590 HAL2          1 ecer2   
       7 H7           1.0644    -0.8736    -4.1956 HAL2          1 ecer2   
       8 C8          -0.3211     0.4825    -5.1890 CTL2          1 ecer2   
       9 H9          -1.4244     0.6336    -5.1709 HAL2          1 ecer2   
      10 H10          0.1446     1.4920    -5.0912 HAL2          1 ecer2   
      11 C11          0.1101    -0.0750    -6.5982 CTL2          1 ecer2   
      12 H12          1.2130     0.0537    -6.6680 HAL2          1 ecer2   
      13 H13         -0.0958    -1.1671    -6.6385 HAL2          1 ecer2   
      14 C14         -0.5401     0.5585    -7.8841 CTL2          1 ecer2   
      15 H15         -1.5917     0.2013    -7.9375 HAL2          1 ecer2   
      16 H16         -0.5716     1.6656    -7.7770 HAL2          1 ecer2   
      17 C17          0.1768     0.2384    -9.2482 CTL2          1 ecer2   
      18 H18          1.1177     0.8338    -9.2796 HAL2          1 ecer2   
      19 H19          0.4657    -0.8360    -9.2614 HAL2          1 ecer2   
      20 C20         -0.6325     0.5075   -10.5670 CTL2          1 ecer2   
      21 H21         -1.4648    -0.2294   -10.6041 HAL2          1 ecer2   
      22 H22         -1.0867     1.5209   -10.5183 HAL2          1 ecer2   
      23 C23          0.1787     0.4140   -11.9071 CTL2          1 ecer2   
      24 H24          0.8733     1.2825   -11.9494 HAL2          1 ecer2   
      25 H25          0.8021    -0.5072   -11.8899 HAL2          1 ecer2   
      26 C26         -0.6639     0.3797   -13.2253 CTL2          1 ecer2   
      27 H27         -1.2525    -0.5642   -13.2290 HAL2          1 ecer2   
      28 H28         -1.3886     1.2232   -13.2221 HAL2          1 ecer2   
      29 C29          0.1484     0.4587   -14.5610 CTL2          1 ecer2   
      30 H30          0.6152     1.4667   -14.6280 HAL2          1 ecer2   
      31 H31          0.9718    -0.2885   -14.5305 HAL2          1 ecer2   
      32 C32         -0.6728     0.2013   -15.8618 CTL2          1 ecer2   
      33 H33         -1.0564    -0.8421   -15.8267 HAL2          1 ecer2   
      34 H34         -1.5518     0.8813   -15.8804 HAL2          1 ecer2   
      35 C35          0.1038     0.3898   -17.1982 CTL2          1 ecer2   
      36 H36          0.3971     1.4598   -17.2932 HAL2          1 ecer2   
      37 H37          1.0399    -0.2119   -17.1669 HAL2          1 ecer2   
      38 C38         -0.6845    -0.0230   -18.4756 CTL2          1 ecer2   
      39 H39         -0.9238    -1.1070   -18.4027 HAL2          1 ecer2   
      40 H40         -1.6490     0.5315   -18.5030 HAL2          1 ecer2   
      41 C41          0.0549     0.2274   -19.8153 CTL2          1 ecer2   
      42 H42          0.2365     1.3171   -19.9277 HAL2          1 ecer2   
      43 H43          1.0431    -0.2790   -19.7879 HAL2          1 ecer2   
      44 C44         -0.7109    -0.2765   -21.0616 CTL2          1 ecer2   
      45 H45         -0.8723    -1.3773   -20.9666 HAL2          1 ecer2   
      46 H46         -1.7193     0.2012   -21.0912 HAL2          1 ecer2   
      47 C47         -0.0000     0.0000   -22.3998 CTL3          1 ecer2   
      48 H48          0.1255     1.0904   -22.5644 HAL3          1 ecer2   
      49 H49          0.9999    -0.4817   -22.4266 HAL3          1 ecer2   
      50 H50         -0.5937    -0.4043   -23.2483 HAL3          1 ecer2   
      51 C51          0.0000     0.0000     0.0000 CTL1          1 ecer2   
      52 H52          1.1099     0.0002     0.1243 HAL1          1 ecer2   
      53 C53         -0.5175     1.4661     0.2719 CTL2          1 ecer2   
      54 H54         -1.2510     1.7841    -0.4986 HAL2          1 ecer2   
      55 H55         -1.0208     1.5470     1.2588 HAL2          1 ecer2   
      56 O56          0.5733     2.3840     0.2529 OHL           1 ecer2   
      57 H57          0.9270     2.3519    -0.6493 HOL           1 ecer2   
      58 C58         -0.6055    -1.1133     0.9399 CTL1          1 ecer2   
      59 H59         -0.4089    -2.1070     0.4774 HAL1          1 ecer2   
      60 O60         -2.0240    -0.9822     1.0450 OHL           1 ecer2   
      61 H61         -2.1813    -0.2668     1.6668 HOL           1 ecer2   
      62 C62          0.1121    -1.1509     2.3208 CEL1          1 ecer2   
      63 H63          1.2104    -1.1769     2.2749 HEL1          1 ecer2   
      64 C64         -0.4699    -1.2233     3.5585 CEL1          1 ecer2   
      65 H65         -1.5663    -1.2760     3.6474 HEL1          1 ecer2   
      66 C66          0.2244    -1.3623     4.9153 CTL2          1 ecer2   
      67 H67          1.1529    -1.9660     4.8021 HAL2          1 ecer2   
      68 H68          0.5448    -0.3562     5.2671 HAL2          1 ecer2   
      69 C69         -0.5921    -2.0274     6.0843 CTL2          1 ecer2   
      70 H70         -1.5107    -1.4240     6.2487 HAL2          1 ecer2   
      71 H71         -0.9141    -3.0391     5.7560 HAL2          1 ecer2   
      72 C72          0.1505    -2.1768     7.4608 CTL2          1 ecer2   
      73 H73          1.0419    -2.8256     7.3038 HAL2          1 ecer2   
      74 H74          0.5217    -1.1775     7.7809 HAL2          1 ecer2   
      75 C75         -0.6792    -2.7815     8.6498 CTL2          1 ecer2   
      76 H76         -1.5352    -2.1021     8.8612 HAL2          1 ecer2   
      77 H77         -1.1013    -3.7576     8.3240 HAL2          1 ecer2   
      78 C78          0.0961    -3.0208     9.9918 CTL2          1 ecer2   
      79 H79          0.9458    -3.7068     9.7871 HAL2          1 ecer2   
      80 H80          0.5227    -2.0545    10.3380 HAL2          1 ecer2   
      81 C81         -0.7390    -3.6307    11.1682 CTL2          1 ecer2   
      82 H82         -1.5806    -2.9382    11.4060 HAL2          1 ecer2   
      83 H83         -1.1897    -4.5901    10.8200 HAL2          1 ecer2   
      84 C84          0.0410    -3.9212    12.4948 CTL2          1 ecer2   
      85 H85          0.8901    -4.5986    12.2634 HAL2          1 ecer2   
      86 H86          0.4650    -2.9683    12.8758 HAL2          1 ecer2   
      87 C87         -0.8012    -4.5751    13.6323 CTL2          1 ecer2   
      88 H88         -1.6546    -3.9043    13.8812 HAL2          1 ecer2   
      89 H89         -1.2263    -5.5305    13.2505 HAL2          1 ecer2   
      90 C90         -0.0344    -4.8879    14.9530 CTL2          1 ecer2   
      91 H91          0.8405    -5.5336    14.7146 HAL2          1 ecer2   
      92 H92          0.3570    -3.9351    15.3758 HAL2          1 ecer2   
      93 C93         -0.8812    -5.6021    16.0413 CTL2          1 ecer2   
      94 H94         -1.7613    -4.9706    16.2876 HAL2          1 ecer2   
      95 H95         -1.2606    -6.5582    15.6225 HAL2          1 ecer2   
      96 C96         -0.1300    -5.9190    17.3621 CTL2          1 ecer2   
      97 H97          0.7716    -6.5314    17.1351 HAL2          1 ecer2   
      98 H98          0.2228    -4.9688    17.8233 HAL2          1 ecer2   
      99 C99         -0.9784    -6.6843    18.4056 CTL2          1 ecer2   
     100 H100        -1.8933    -6.0927    18.6314 HAL2          1 ecer2   
     101 H101        -1.3093    -7.6473    17.9574 HAL2          1 ecer2   
     102 C102        -0.2360    -7.0130    19.8027 CTL3          1 ecer2   
     103 H103        -0.8720    -7.5924    20.5330 HAL3          1 ecer2   
     104 H104         0.7006    -7.6305    19.6960 HAL3          1 ecer2   
     105 H105         0.0900    -6.1014    20.3805 HAL3          1 ecer2   
@<TRIPOS>BOND
       1       56       57 1
       2       58       62 1
       3       43       41 1
       4       44       45 1
       5       44       46 1
       6      102      104 1
       7       38       40 1
       8       72       73 1
       9        5        7 1
      10        8       11 1
      11       96       97 1
      12        1        2 1
      13       66       68 1
      14        8       10 1
      15       11       13 1
      16        3        4 1
      17       78       80 1
      18       49       47 1
      19       66       67 1
      20       18       17 1
      21       32       34 1
      22       11       12 1
      23       62       64 1
      24       84       85 1
      25       50       47 1
      26       75       77 1
      27       56       53 1
      28       81       84 1
      29       21       20 1
      30      102      105 1
      31       78       79 1
      32       17       14 1
      33       35       38 1
      34       66       69 1
      35       60       61 1
      36       23       20 1
      37       27       26 1
      38        8        9 1
      39       99      100 1
      40       90       93 1
      41        3        1 1
      42       87       88 1
      43       11       14 1
      44       90       91 1
      45       75       78 1
      46       29       32 1
      47      102      103 1
      48       48       47 1
      49       32       35 1
      50       52       51 1
      51       72       75 1
      52       38       39 1
      53       78       81 1
      54       20       17 1
      55       69       70 1
      56       84       87 1
      57       64       65 1
      58       93       94 1
      59       69       72 1
      60        3        5 1
      61       54       53 1
      62       87       89 1
      63       55       53 1
      64       38       41 1
      65       58       59 1
      66       26       29 1
      67       28       26 1
      68       42       41 1
      69       93       95 1
      70       29       30 1
      71       15       14 1
      72       62       63 1
      73       44       41 1
      74       93       96 1
      75       96       98 1
      76       35       36 1
      77       69       71 1
      78       84       86 1
      79       99      101 1
      80       22       20 1
      81       90       92 1
      82       58       60 1
      83       24       23 1
      84       44       47 1
      85       72       74 1
      86       75       76 1
      87       25       23 1
      88       96       99 1
      89        5        6 1
      90        1       51 1
      91       16       14 1
      92       81       82 1
      93       26       23 1
      94       81       83 1
      95       64       66 1
      96       58       51 1
      97       99      102 1
      98       32       33 1
      99       19       17 1
     100       87       90 1
     101        5        8 1
     102       35       37 1
     103       53       51 1
     104       29       31 1
@<TRIPOS>SUBSTRUCTURE
       1 ecer2           1 RESIDUE    0 **** ROOT      0
