@<TRIPOS>MOLECULE
ecer6
109 108 1 0 1
SMALL
NO_CHARGES
@<TRIPOS>CRYSIN
   16.2070    18.0799    25.1728    90.0000    90.0000    90.0000  1  1
@<TRIPOS>ATOM
       1 NH1          6.9977   -10.6954    15.2660 NH1           1 ecer6   
       2 HN1          7.1629   -11.6100    15.6237 HN1           1 ecer6   
       3 CLN          6.4438   -10.5341    14.0518 CLN           1 ecer6   
       4 OBL          6.1474   -11.5188    13.3953 OBL           1 ecer6   
       5 CTL2         6.1988    -9.1275    13.5232 CTL2          1 ecer6   
       6 HAL2         7.1840    -8.5605    13.4535 HAL2          1 ecer6   
       7 OHL          5.5078    -8.6001    14.2148 OHL           1 ecer6   
       8 CTL2         5.5656    -9.2465    12.1351 CTL2          1 ecer6   
       9 HAL2         6.2560    -9.7912    11.4538 HAL2          1 ecer6   
      10 HAL2         4.6017    -9.7954    12.2089 HAL2          1 ecer6   
      11 CTL2         5.3155    -7.8398    11.5946 CTL2          1 ecer6   
      12 HAL2         4.6260    -7.2960    12.2787 HAL2          1 ecer6   
      13 HAL2         6.2802    -7.2918    11.5237 HAL2          1 ecer6   
      14 CTL2         4.6810    -7.9416    10.2048 CTL2          1 ecer6   
      15 HAL2         5.3701    -8.4836     9.5233 HAL2          1 ecer6   
      16 HAL2         3.7178    -8.4880    10.2761 HAL2          1 ecer6   
      17 CTL2         4.4287    -6.5326     9.6642 CTL2          1 ecer6   
      18 HAL2         3.7419    -5.9913    10.3442 HAL2          1 ecer6   
      19 HAL2         5.3924    -5.9855     9.5906 HAL2          1 ecer6   
      20 CTL2         3.7959    -6.6339     8.2728 CTL2          1 ecer6   
      21 HAL2         4.4829    -7.1762     7.5907 HAL2          1 ecer6   
      22 HAL2         2.8313    -7.1816     8.3451 HAL2          1 ecer6   
      23 CTL2         3.5431    -5.2270     7.7296 CTL2          1 ecer6   
      24 HAL2         2.8547    -4.6838     8.4116 HAL2          1 ecer6   
      25 HAL2         4.5075    -4.6785     7.6579 HAL2          1 ecer6   
      26 CTL2         2.9095    -5.3284     6.3397 CTL2          1 ecer6   
      27 HAL2         3.5984    -5.8698     5.6588 HAL2          1 ecer6   
      28 HAL2         1.9452    -5.8745     6.4118 HAL2          1 ecer6   
      29 CTL2         2.6572    -3.9197     5.7977 CTL2          1 ecer6   
      30 HAL2         1.9701    -3.3776     6.4783 HAL2          1 ecer6   
      31 HAL2         3.6213    -3.3729     5.7262 HAL2          1 ecer6   
      32 CTL2         2.0235    -4.0211     4.4078 CTL2          1 ecer6   
      33 HAL2         2.7120    -4.5643     3.7258 HAL2          1 ecer6   
      34 HAL2         1.0607    -4.5681     4.4798 HAL2          1 ecer6   
      35 CTL2         1.7722    -2.6129     3.8636 CTL2          1 ecer6   
      36 HAL2         1.0839    -2.0695     4.5470 HAL2          1 ecer6   
      37 HAL2         2.7371    -2.0648     3.7940 HAL2          1 ecer6   
      38 CTL2         1.1378    -2.7146     2.4752 CTL2          1 ecer6   
      39 HAL2         1.8260    -3.2572     1.7924 HAL2          1 ecer6   
      40 HAL2         0.1743    -3.2626     2.5468 HAL2          1 ecer6   
      41 CTL2         0.8860    -1.3073     1.9319 CTL2          1 ecer6   
      42 HAL2         0.1985    -0.7635     2.6152 HAL2          1 ecer6   
      43 HAL2         1.8504    -0.7588     1.8602 HAL2          1 ecer6   
      44 CTL2         0.2534    -1.4081     0.5433 CTL2          1 ecer6   
      45 HAL2         0.9406    -1.9512    -0.1393 HAL2          1 ecer6   
      46 HAL2        -0.7120    -1.9548     0.6141 HAL2          1 ecer6   
      47 CTL3         0.0000     0.0000     0.0000 CTL3          1 ecer6   
      48 HAL3        -0.6885     0.5432     0.6820 HAL3          1 ecer6   
      49 HAL3         0.9642     0.5470    -0.0700 HAL3          1 ecer6   
      50 HAL3        -0.6342    -0.1024    -1.3890 HAL3          1 ecer6   
      51 CTL1         7.3509    -9.5494    16.0469 CTL1          1 ecer6   
      52 HAL1         6.6892    -8.6847    15.8220 HAL1          1 ecer6   
      53 CTL2         7.1909    -9.8602    17.5433 CTL2          1 ecer6   
      54 HAL2         7.8998   -10.6781    17.7962 HAL2          1 ecer6   
      55 HAL2         7.5029    -8.9818    18.1482 HAL2          1 ecer6   
      56 OHL          5.8532   -10.2145    17.8540 OHL           1 ecer6   
      57 HOL          5.7941   -10.4443    18.7838 HOL           1 ecer6   
      58 CTL1         8.7799    -9.1908    15.7611 CTL1          1 ecer6   
      59 HAL1         9.2114    -9.8923    15.0152 HAL1          1 ecer6   
      60 OHL          9.5956    -9.1496    16.9218 OHL           1 ecer6   
      61 HOL         10.4950    -8.8993    16.6963 HOL           1 ecer6   
      62 CTL1         8.8488    -7.8437    15.1034 CTL1          1 ecer6   
      63 HAL1         9.8637    -7.3882    15.3531 HAL1          1 ecer6   
      64 OHL          7.8287    -6.9900    15.7995 OHL           1 ecer6   
      65 HOL          7.8788    -6.0022    15.3179 HOL           1 ecer6   
      66 CTL2         8.6402    -7.6761    13.7918 CTL2          1 ecer6   
      67 HAL2         9.6698    -7.7048    13.3031 HAL2          1 ecer6   
      68 HAL2         8.0871    -8.5978    13.4139 HAL2          1 ecer6   
      69 CTL2         7.9466    -6.4711    13.2221 CTL2          1 ecer6   
      70 HAL2         6.8993    -6.4136    13.5889 HAL2          1 ecer6   
      71 HAL2         8.4480    -5.5238    13.5151 HAL2          1 ecer6   
      72 CTL2         7.9125    -6.5327    11.6930 CTL2          1 ecer6   
      73 HAL2         8.9402    -6.5081    11.2712 HAL2          1 ecer6   
      74 HAL2         7.3440    -7.4222    11.3461 HAL2          1 ecer6   
      75 CTL2         7.1717    -5.2808    11.2235 CTL2          1 ecer6   
      76 HAL2         6.1032    -5.2452    11.5301 HAL2          1 ecer6   
      77 HAL2         7.6967    -4.3301    11.4546 HAL2          1 ecer6   
      78 CTL2         7.1719    -5.4074     9.6997 CTL2          1 ecer6   
      79 HAL2         8.1667    -5.3412     9.2036 HAL2          1 ecer6   
      80 HAL2         6.5808    -6.2489     9.2781 HAL2          1 ecer6   
      81 CTL2         6.4334    -4.1586     9.2141 CTL2          1 ecer6   
      82 HAL2         5.3517    -4.0782     9.4549 HAL2          1 ecer6   
      83 HAL2         6.9227    -3.1766     9.3804 HAL2          1 ecer6   
      84 CTL2         6.4182    -4.2588     7.6884 CTL2          1 ecer6   
      85 HAL2         7.3829    -4.1734     7.1439 HAL2          1 ecer6   
      86 HAL2         5.8218    -5.0708     7.2155 HAL2          1 ecer6   
      87 CTL2         5.6838    -3.0215     7.1653 CTL2          1 ecer6   
      88 HAL2         4.6005    -2.9130     7.3836 HAL2          1 ecer6   
      89 HAL2         6.1492    -2.0232     7.3098 HAL2          1 ecer6   
      90 CTL2         5.6458    -3.0818     5.6364 CTL2          1 ecer6   
      91 HAL2         6.6051    -3.0103     5.0808 HAL2          1 ecer6   
      92 HAL2         5.0642    -3.8947     5.1560 HAL2          1 ecer6   
      93 CTL2         4.9191    -1.8601     5.0663 CTL2          1 ecer6   
      94 HAL2         3.8403    -1.7472     5.3129 HAL2          1 ecer6   
      95 HAL2         5.3800    -0.8637     5.2414 HAL2          1 ecer6   
      96 CTL2         4.8600    -1.8821     3.5399 CTL2          1 ecer6   
      97 HAL2         5.8385    -1.8439     3.0134 HAL2          1 ecer6   
      98 HAL2         4.2971    -2.7259     3.0854 HAL2          1 ecer6   
      99 CTL2         4.1388    -0.6729     2.9468 CTL2          1 ecer6   
     100 HAL2         3.0710    -0.5821     3.2459 HAL2          1 ecer6   
     101 HAL2         4.6149     0.3040     3.1730 HAL2          1 ecer6   
     102 CTL2         4.0691    -0.6798     1.4176 CTL2          1 ecer6   
     103 HAL2         5.0786    -0.6810     0.9510 HAL2          1 ecer6   
     104 HAL2         3.5368    -1.5717     1.0236 HAL2          1 ecer6   
     105 CTL3         3.3492     0.5236     0.8080 CTL3          1 ecer6   
     106 HAL3         3.2974     0.5196    -0.3007 HAL3          1 ecer6   
     107 HAL3         2.3012     0.5888     1.1702 HAL3          1 ecer6   
     108 HAL3         3.8514     1.4699     1.1105 HAL3          1 ecer6   
     109 HOL          5.2692    -7.8595    14.8430 HOL           1 ecer6   
@<TRIPOS>BOND
       1       53       51 1
       2       62       64 1
       3       38       40 1
       4       44       46 1
       5       41       44 1
       6       25       23 1
       7        1        2 1
       8       20       21 1
       9        3        4 1
      10       87       89 1
      11       58       60 1
      12       84       86 1
      13       51        1 1
      14       82       81 1
      15       69       70 1
      16       29       30 1
      17       72       73 1
      18       32       33 1
      19       75       76 1
      20      109        7 1
      21       83       81 1
      22       35       36 1
      23       58       62 1
      24       84       81 1
      25       47       48 1
      26       69       72 1
      27       29       32 1
      28       41       43 1
      29       87       90 1
      30       84       87 1
      31       62       66 1
      32        8        9 1
      33      102      103 1
      34       41       42 1
      35       99      102 1
      36        1        3 1
      37        5        8 1
      38       96       98 1
      39       56       57 1
      40       26       29 1
      41       96       99 1
      42       14       17 1
      43       11       12 1
      44      105      106 1
      45       32       34 1
      46       72       74 1
      47       14       15 1
      48       32       35 1
      49       72       75 1
      50       44       47 1
      51       69       71 1
      52       29       31 1
      53       35       38 1
      54       90       91 1
      55       52       51 1
      56       93       96 1
      57       23       24 1
      58       60       61 1
      59       26       28 1
      60       66       67 1
      61       90       93 1
      62        8       11 1
      63      102      105 1
      64       58       51 1
      65       84       85 1
      66       38       41 1
      67       17       18 1
      68       54       53 1
      69       55       53 1
      70       47       50 1
      71       11       13 1
      72      105      107 1
      73       93       95 1
      74       78       81 1
      75       17       19 1
      76       26       27 1
      77       17       20 1
      78       20       22 1
      79        8       10 1
      80      102      104 1
      81       38       39 1
      82       62       63 1
      83       14       16 1
      84       47       49 1
      85       58       59 1
      86       87       88 1
      87       99      100 1
      88        5        6 1
      89       78       80 1
      90       66       68 1
      91       90       92 1
      92       75       77 1
      93       35       37 1
      94       99      101 1
      95        5        7 1
      96       66       69 1
      97       44       45 1
      98        3        5 1
      99       56       53 1
     100       93       94 1
     101       11       14 1
     102      105      108 1
     103       75       78 1
     104       26       23 1
     105       20       23 1
     106       96       97 1
     107       64       65 1
     108       78       79 1
@<TRIPOS>SUBSTRUCTURE
       1 ecer6           1 RESIDUE    0 **** ROOT      0
