@<TRIPOS>MOLECULE
generated by VMD
  131  130    1    0    0
SMALL
NO_CHARGES
****
Energy = 0

@<TRIPOS>ATOM
      1  N1        -2.2727   -0.7090   -0.1323  NH1    1  ucer6        0.000000
      2  H2        -2.5624   -1.2079    0.6795  HN1    1  ucer6        0.000000
      3  C3        -2.6674   -1.1141   -1.3517  CLN    1  ucer6        0.000000
      4  O4        -3.3821   -2.0979   -1.4515  OBL    1  ucer6        0.000000
      5  C5        -2.2142   -0.3374   -2.5802 CTL2    1  ucer6        0.000000
      6  H6        -1.0773   -0.3390   -2.6446 HAL2    1  ucer6        0.000000
      7  O7        -2.5864    0.7064   -2.5016  OHL    1  ucer6        0.000000
      8  C8        -2.8081   -1.0168   -3.8162 CTL2    1  ucer6        0.000000
      9  H9        -2.4448   -2.0663   -3.8777 HAL2    1  ucer6        0.000000
     10  H10       -3.9179   -1.0075   -3.7518 HAL2    1  ucer6        0.000000
     11  C11       -2.3593   -0.2450   -5.0558 CTL2    1  ucer6        0.000000
     12  H12       -2.7223    0.8054   -4.9912 HAL2    1  ucer6        0.000000
     13  H13       -1.2492   -0.2534   -5.1172 HAL2    1  ucer6        0.000000
     14  C14       -2.9462   -0.9126   -6.3025 CTL2    1  ucer6        0.000000
     15  H15       -2.5827   -1.9600   -6.3659 HAL2    1  ucer6        0.000000
     16  H16       -4.0542   -0.9035   -6.2411 HAL2    1  ucer6        0.000000
     17  C17       -2.4982   -0.1386   -7.5439 CTL2    1  ucer6        0.000000
     18  H18       -2.8600    0.9066   -7.4807 HAL2    1  ucer6        0.000000
     19  H19       -1.3895   -0.1488   -7.6074 HAL2    1  ucer6        0.000000
     20  C20       -3.0833   -0.8075   -8.7917 CTL2    1  ucer6        0.000000
     21  H21       -2.7219   -1.8546   -8.8561 HAL2    1  ucer6        0.000000
     22  H22       -4.1932   -0.7981   -8.7293 HAL2    1  ucer6        0.000000
     23  C23       -2.6367   -0.0363  -10.0343 CTL2    1  ucer6        0.000000
     24  H24       -2.9991    1.0120   -9.9708 HAL2    1  ucer6        0.000000
     25  H25       -1.5267   -0.0446  -10.0967 HAL2    1  ucer6        0.000000
     26  C26       -3.2227   -0.7040  -11.2810 CTL2    1  ucer6        0.000000
     27  H27       -2.8591   -1.7505  -11.3444 HAL2    1  ucer6        0.000000
     28  H28       -4.3315   -0.6938  -11.2196 HAL2    1  ucer6        0.000000
     29  C29       -2.7748    0.0690  -12.5235 CTL2    1  ucer6        0.000000
     30  H30       -3.1365    1.1152  -12.4602 HAL2    1  ucer6        0.000000
     31  H31       -1.6659    0.0598  -12.5849 HAL2    1  ucer6        0.000000
     32  C32       -3.3608   -0.5988  -13.7702 CTL2    1  ucer6        0.000000
     33  H33       -2.9984   -1.6470  -13.8336 HAL2    1  ucer6        0.000000
     34  H34       -4.4687   -0.5897  -13.7079 HAL2    1  ucer6        0.000000
     35  C35       -2.9123    0.1723  -15.0139 CTL2    1  ucer6        0.000000
     36  H36       -3.2745    1.2215  -14.9494 HAL2    1  ucer6        0.000000
     37  H37       -1.8020    0.1648  -15.0742 HAL2    1  ucer6        0.000000
     38  C38       -3.4990   -0.4945  -16.2595 CTL2    1  ucer6        0.000000
     39  H39       -3.1367   -1.5427  -16.3239 HAL2    1  ucer6        0.000000
     40  H40       -4.6080   -0.4863  -16.1971 HAL2    1  ucer6        0.000000
     41  C41       -3.0514    0.2766  -17.5021 CTL2    1  ucer6        0.000000
     42  H42       -3.4126    1.3257  -17.4376 HAL2    1  ucer6        0.000000
     43  H43       -1.9414    0.2683  -17.5645 HAL2    1  ucer6        0.000000
     44  C44       -3.6362   -0.3904  -18.7478 CTL2    1  ucer6        0.000000
     45  H45       -3.2749   -1.4384  -18.8122 HAL2    1  ucer6        0.000000
     46  H46       -4.7462   -0.3809  -18.6873 HAL2    1  ucer6        0.000000
     47  C47       -3.1895    0.3819  -19.9913 CTL2    1  ucer6        0.000000
     48  H48       -3.5519    1.4302  -19.9279 HAL2    1  ucer6        0.000000
     49  H49       -2.0804    0.3736  -20.0516 HAL2    1  ucer6        0.000000
     50  C50       -3.7764   -0.2858  -21.2370 CTL2    1  ucer6        0.000000
     51  H51       -3.4141   -1.3340  -21.3024 HAL2    1  ucer6        0.000000
     52  H52       -4.8855   -0.2775  -21.1756 HAL2    1  ucer6        0.000000
     53  C53       -3.3302    0.4835  -22.4816 CTL2    1  ucer6        0.000000
     54  H54       -3.6894    1.5313  -22.4153 HAL2    1  ucer6        0.000000
     55  H55       -2.2210    0.4752  -22.5409 HAL2    1  ucer6        0.000000
     56  C56       -3.9187   -0.1902  -23.7245 CTL2    1  ucer6        0.000000
     57  H57       -5.0254   -0.1928  -23.6318 HAL2    1  ucer6        0.000000
     58  H58       -3.5671   -1.2416  -23.7565 HAL2    1  ucer6        0.000000
     59  C59       -3.4943    0.5529  -24.9936 CTL2    1  ucer6        0.000000
     60  H60       -2.3857    0.5636  -25.0699 HAL2    1  ucer6        0.000000
     61  H61       -3.8388    1.6057  -24.9458 HAL2    1  ucer6        0.000000
     62  C62       -4.0778   -0.1111  -26.2412 CTL2    1  ucer6        0.000000
     63  H63       -5.1858   -0.1480  -26.1674 HAL2    1  ucer6        0.000000
     64  H64       -3.6983   -1.1527  -26.3211 HAL2    1  ucer6        0.000000
     65  C65       -3.6756    0.6782  -27.4886 CTL2    1  ucer6        0.000000
     66  H66       -2.5673    0.7124  -27.5696 HAL2    1  ucer6        0.000000
     67  H67       -4.0464    1.7225  -27.4049 HAL2    1  ucer6        0.000000
     68  C68       -4.2620    0.0260  -28.7425 CTL2    1  ucer6        0.000000
     69  H69       -5.3695   -0.0057  -28.6523 HAL2    1  ucer6        0.000000
     70  H70       -3.9016   -1.0209  -28.8087 HAL2    1  ucer6        0.000000
     71  C71       -3.8618    0.8027  -29.9965 CTL3    1  ucer6        0.000000
     72  H72       -4.2345    1.8460  -29.9268 HAL3    1  ucer6        0.000000
     73  H73       -4.3091    0.3075  -30.8855 HAL3    1  ucer6        0.000000
     74  H74       -2.7527    0.8103  -30.0931 HAL3    1  ucer6        0.000000
     75  C75       -1.4339    0.4430   -0.0002 CTL1    1  ucer6        0.000000
     76  H76       -1.6078    1.1690   -0.8240 HAL1    1  ucer6        0.000000
     77  C77       -1.7437    1.1739    1.3156 CTL2    1  ucer6        0.000000
     78  H78       -1.5065    0.4804    2.1512 HAL2    1  ucer6        0.000000
     79  H79       -1.0644    2.0453    1.4340 HAL2    1  ucer6        0.000000
     80  O80       -3.0954    1.6010    1.3597  OHL    1  ucer6        0.000000
     81  H81       -3.2695    2.0141    2.2082  HOL    1  ucer6        0.000000
     82  C82        0.0000    0.0000    0.0000 CTL1    1  ucer6        0.000000
     83  H83        0.0621   -1.1042   -0.1071 HAL1    1  ucer6        0.000000
     84  O84        0.7218    0.4209    1.1473  OHL    1  ucer6        0.000000
     85  H85        1.6365    0.1323    1.0980  HOL    1  ucer6        0.000000
     86  C86        0.7040    0.5415   -1.2096 CTL1    1  ucer6        0.000000
     87  H87        1.8101    0.6401   -0.9510 HAL1    1  ucer6        0.000000
     88  C90        0.6185   -0.0450   -2.4099 CTL2    1  ucer6        0.000000
     89  H91        1.5209   -0.7374   -2.4870 HAL2    1  ucer6        0.000000
     90  H92       -0.2973   -0.7227   -2.3938 HAL2    1  ucer6        0.000000
     91  C93        0.5815    0.7294   -3.6970 CTL2    1  ucer6        0.000000
     92  H94       -0.3211    1.3762   -3.7378 HAL2    1  ucer6        0.000000
     93  H95        1.4651    1.3939   -3.8095 HAL2    1  ucer6        0.000000
     94  C96        0.5454   -0.2145   -4.9014 CTL2    1  ucer6        0.000000
     95  H97        1.4703   -0.8283   -4.9532 HAL2    1  ucer6        0.000000
     96  H98       -0.3692   -0.8451   -4.8818 HAL2    1  ucer6        0.000000
     97  C99        0.4874    0.6706   -6.1462 CTL2    1  ucer6        0.000000
     98 H100       -0.4433    1.2737   -6.2302 HAL2    1  ucer6        0.000000
     99 H101        1.3943    1.2918   -6.3034 HAL2    1  ucer6        0.000000
    100 C102        0.4510   -0.3291   -7.3026 CTL2    1  ucer6        0.000000
    101 H103        1.3674   -0.9455   -7.4453 HAL2    1  ucer6        0.000000
    102 H104       -0.4600   -0.9619   -7.3745 HAL2    1  ucer6        0.000000
    103 C105        0.3938    0.5432   -8.5582 CTL2    1  ucer6        0.000000
    104 H106       -0.5265    1.1438   -8.7220 HAL2    1  ucer6        0.000000
    105 H107        1.2848    1.1613   -8.7940 HAL2    1  ucer6        0.000000
    106 C108        0.3562   -0.4332   -9.7343 CTL2    1  ucer6        0.000000
    107 H109        1.2558   -1.0536   -9.9346 HAL2    1  ucer6        0.000000
    108 H110       -0.5448   -1.0734   -9.8642 HAL2    1  ucer6        0.000000
    109 C111        0.2977    0.4072  -11.0127 CTL2    1  ucer6        0.000000
    110 H112       -0.6104    1.0149  -11.2097 HAL2    1  ucer6        0.000000
    111 H113        1.1757    1.0325  -11.2815 HAL2    1  ucer6        0.000000
    112 C114        0.2588   -0.5343  -12.2188 CTL2    1  ucer6        0.000000
    113 H115        1.1473   -1.1693  -12.4224 HAL2    1  ucer6        0.000000
    114 H116       -0.6294   -1.1852  -12.3500 HAL2    1  ucer6        0.000000
    115 C117        0.2006    0.2640  -13.5246 CTL2    1  ucer6        0.000000
    116 H118       -0.7020    0.8901  -13.6999 HAL2    1  ucer6        0.000000
    117 H119        1.0732    0.9080  -13.7691 HAL2    1  ucer6        0.000000
    118 C120        0.1610   -0.6409  -14.7548 CTL2    1  ucer6        0.000000
    119 H121        1.0503   -1.2894  -14.9120 HAL2    1  ucer6        0.000000
    120 H122       -0.7257   -1.3052  -14.8436 HAL2    1  ucer6        0.000000
    121 C123        0.1020    0.1327  -16.0709 CTL2    1  ucer6        0.000000
    122 H124       -0.8020    0.7703  -16.1893 HAL2    1  ucer6        0.000000
    123 H125        0.9781    0.7877  -16.2598 HAL2    1  ucer6        0.000000
    124 C126        0.0603   -0.7591  -17.3143 CTL2    1  ucer6        0.000000
    125 H127        0.9575   -1.4114  -17.3939 HAL2    1  ucer6        0.000000
    126 H128       -0.8230   -1.4330  -17.3206 HAL2    1  ucer6        0.000000
    127 C129        0.0000   -0.0000  -18.6402 CTL3    1  ucer6        0.000000
    128 H130       -0.0310   -0.6454  -19.5426 HAL3    1  ucer6        0.000000
    129 H131       -0.8996    0.6498  -18.6890 HAL3    1  ucer6        0.000000
    130 H132        0.8836    0.6691  -18.7444 HAL3    1  ucer6        0.000000
    131 H133       -2.4583    1.6970   -2.4531  HOL    1  ucer6        0.000000
@<TRIPOS>BOND
    1     1     3  1
    2     1     2  1
    3     1    75  1
    4     3     4  1
    5     3     5  1
    6     5     8  1
    7     5     7  1
    8     5     6  1
    9     7   131  1
   10     8    10  1
   11     8     9  1
   12     8    11  1
   13    11    13  1
   14    11    12  1
   15    11    14  1
   16    14    15  1
   17    14    16  1
   18    14    17  1
   19    17    19  1
   20    17    20  1
   21    17    18  1
   22    20    22  1
   23    20    21  1
   24    20    23  1
   25    23    26  1
   26    23    24  1
   27    23    25  1
   28    26    27  1
   29    26    29  1
   30    26    28  1
   31    29    32  1
   32    29    30  1
   33    29    31  1
   34    32    35  1
   35    32    33  1
   36    32    34  1
   37    35    38  1
   38    35    36  1
   39    35    37  1
   40    38    41  1
   41    38    40  1
   42    38    39  1
   43    41    44  1
   44    41    42  1
   45    41    43  1
   46    44    45  1
   47    44    47  1
   48    44    46  1
   49    47    50  1
   50    47    48  1
   51    47    49  1
   52    50    53  1
   53    50    51  1
   54    50    52  1
   55    53    55  1
   56    53    56  1
   57    53    54  1
   58    56    58  1
   59    56    57  1
   60    56    59  1
   61    59    60  1
   62    59    61  1
   63    59    62  1
   64    62    64  1
   65    62    63  1
   66    62    65  1
   67    65    66  1
   68    65    67  1
   69    65    68  1
   70    68    70  1
   71    68    69  1
   72    68    71  1
   73    71    73  1
   74    71    74  1
   75    71    72  1
   76    75    76  1
   77    75    82  1
   78    75    77  1
   79    77    78  1
   80    77    79  1
   81    77    80  1
   82    80    81  1
   83    82    86  1
   84    82    84  1
   85    82    83  1
   86    84    85  1
   87    86    87  1
   88    86    88  1
   89    88    90  1
   90    88    91  1
   91    88    89  1
   92    91    93  1
   93    91    92  1
   94    91    94  1
   95    94    95  1
   96    94    97  1
   97    94    96  1
   98    97    98  1
   99    97    99  1
  100    97   100  1
  101   100   101  1
  102   100   103  1
  103   100   102  1
  104   103   104  1
  105   103   105  1
  106   103   106  1
  107   106   107  1
  108   106   109  1
  109   106   108  1
  110   109   111  1
  111   109   112  1
  112   109   110  1
  113   112   115  1
  114   112   114  1
  115   112   113  1
  116   115   117  1
  117   115   118  1
  118   115   116  1
  119   118   119  1
  120   118   121  1
  121   118   120  1
  122   121   122  1
  123   121   123  1
  124   121   124  1
  125   124   127  1
  126   124   126  1
  127   124   125  1
  128   127   128  1
  129   127   129  1
  130   127   130  1

@<TRIPOS>SUBSTRUCTURE
1 ****        1 TEMP                        0 ****  **** 0 ROOT
