@<TRIPOS>MOLECULE
DPPC
130 129 1 0 1
SMALL
NO_CHARGES
@<TRIPOS>CRYSIN
   13.9528    17.1622    31.1323    90.0000    90.0000    90.0000  1  1
@<TRIPOS>ATOM
       1              3.7648     8.6931     3.8504               1 DPPC    
       2              5.1892     9.0609     3.5936               1 DPPC    
       3              5.3990     8.8693     2.5554               1 DPPC    
       4              5.9642     8.5880     4.1900               1 DPPC    
       5              5.2785    10.1270     3.7344               1 DPPC    
       6              3.4380     8.9250     5.3526               1 DPPC    
       7              4.1212     8.3590     5.9759               1 DPPC    
       8              2.4632     8.5442     5.5919               1 DPPC    
       9              3.4584     9.9908     5.5478               1 DPPC    
      10 10           2.8411     9.5728     3.1023 10            1 DPPC    
      11 11           2.8552    10.5639     3.5337 11            1 DPPC    
      12 12           1.8659     9.1149     3.1147 12            1 DPPC    
      13 13           3.1039     9.7320     2.0681 13            1 DPPC    
      14 14           3.5830     7.1875     3.3686 14            1 DPPC    
      15 15           4.0088     6.4306     3.9999 15            1 DPPC    
      16 16           4.0371     7.1969     2.3902 16            1 DPPC    
      17 17           2.1217     6.7346     3.1354 17            1 DPPC    
      18 18           2.0614     5.7993     2.5503 18            1 DPPC    
      19 19           1.5611     7.4906     2.5430 19            1 DPPC    
      20 20          -0.1558     6.4170     4.4541 20            1 DPPC    
      21 21          -0.7278     7.6038     3.8783 21            1 DPPC    
      22 22          -0.5108     6.0856     5.8561 22            1 DPPC    
      23 23          -0.2550     5.1063     3.5611 23            1 DPPC    
      24 24           1.4656     6.5903     4.3667 24            1 DPPC    
      25 25          -1.3494     4.4516     3.0710 25            1 DPPC    
      26 26          -2.2996     5.0099     3.2677 26            1 DPPC    
      27 27          -1.4804     3.4307     3.4858 27            1 DPPC    
      28 28          -1.2636     4.4577     1.5403 28            1 DPPC    
      29 29          -2.3125     4.2046     1.2967 29            1 DPPC    
      30 30          -0.3000     3.5881     1.0231 30            1 DPPC    
      31 31          -0.7217     2.4059     0.6195 31            1 DPPC    
      32 32          -1.8731     2.0124     0.6958 32            1 DPPC    
      33 33           0.4398     1.4544     0.4111 33            1 DPPC    
      34 34           0.8587     1.3536     1.4295 34            1 DPPC    
      35 35           1.0819     1.8342    -0.4034 35            1 DPPC    
      36 36          -0.9128     5.8905     0.9585 36            1 DPPC    
      37 37           0.1073     6.1191     1.3384 37            1 DPPC    
      38 38          -1.6966     6.5566     1.3771 38            1 DPPC    
      39 39          -0.8062     5.8915    -0.4484 39            1 DPPC    
      40 40          -0.6079     6.9388    -1.0923 40            1 DPPC    
      41 41          -0.3512     8.0321    -0.6661 41            1 DPPC    
      42 42          -0.8945     6.6354    -2.5916 42            1 DPPC    
      43 43          -1.8001     7.2523    -2.7609 43            1 DPPC    
      44 44          -1.0608     5.5469    -2.7453 44            1 DPPC    
      45 45           0.0000     0.0000     0.0000 45            1 DPPC    
      46 46          -0.6750    -0.4229     0.7763 46            1 DPPC    
      47 47           0.8781    -0.6789    -0.0458 47            1 DPPC    
      48 48          -0.6514    -0.2187    -1.3688 48            1 DPPC    
      49 49          -1.5070     0.4759    -1.5223 49            1 DPPC    
      50 50          -1.0030    -1.2734    -1.4058 50            1 DPPC    
      51 51           0.2242    -0.0421    -2.5171 51            1 DPPC    
      52 52           1.1857    -0.5863    -2.3889 52            1 DPPC    
      53 53           0.5397     1.0185    -2.6230 53            1 DPPC    
      54 54          -0.4632    -0.4915    -3.8514 54            1 DPPC    
      55 55          -1.5293    -0.1824    -3.8078 55            1 DPPC    
      56 56          -0.5416    -1.5983    -3.9400 56            1 DPPC    
      57 57           0.2176     0.1442    -5.0607 57            1 DPPC    
      58 58           1.3187     0.0171    -5.0098 58            1 DPPC    
      59 59           0.1228     1.2476    -5.0019 59            1 DPPC    
      60 60          -0.2975    -0.3511    -6.3978 60            1 DPPC    
      61 61          -1.4012    -0.2277    -6.2959 61            1 DPPC    
      62 62          -0.0038    -1.3997    -6.6219 62            1 DPPC    
      63 63           0.2003     0.4525    -7.5127 63            1 DPPC    
      64 64           1.3072     0.4057    -7.4577 64            1 DPPC    
      65 65          -0.2374     1.4730    -7.4414 65            1 DPPC    
      66 66          -0.1756    -0.0242    -8.8757 66            1 DPPC    
      67 67          -1.2825    -0.0219    -8.8389 67            1 DPPC    
      68 68           0.1533    -1.0872    -8.8367 68            1 DPPC    
      69 69           0.2544     0.8056   -10.0193 69            1 DPPC    
      70 70           1.3592     0.8982    -9.8839 70            1 DPPC    
      71 71          -0.2252     1.8150    -9.9882 71            1 DPPC    
      72 72          -0.0578     0.1954   -11.3445 72            1 DPPC    
      73 73          -1.1657     0.2150   -11.4780 73            1 DPPC    
      74 74           0.0175    -0.9061   -11.2368 74            1 DPPC    
      75 75           0.7884     0.5930   -12.5384 75            1 DPPC    
      76 76           1.8457     0.2492   -12.4463 76            1 DPPC    
      77 77           0.7702     1.7049   -12.5867 77            1 DPPC    
      78 78           0.1267     0.0216   -13.7837 78            1 DPPC    
      79 79          -0.9374     0.3211   -13.8515 79            1 DPPC    
      80 80           0.2505    -1.0836   -13.8499 80            1 DPPC    
      81 81           0.7656     0.5607   -15.0941 81            1 DPPC    
      82 82           1.8731     0.4418   -15.1416 82            1 DPPC    
      83 83           0.5780     1.6515   -15.0719 83            1 DPPC    
      84 84          -0.0000    -0.0000   -16.3036 84            1 DPPC    
      85 85           0.1979    -1.0566   -16.5773 85            1 DPPC    
      86 86           0.2475     0.5863   -17.2141 86            1 DPPC    
      87 87          -1.0892     0.0691   -16.1321 87            1 DPPC    
      88 88           0.0924     7.1330    -3.6218 88            1 DPPC    
      89 89           1.1236     6.7460    -3.5004 89            1 DPPC    
      90 90           0.1490     8.2366    -3.5369 90            1 DPPC    
      91 91          -0.5099     6.9871    -5.0991 91            1 DPPC    
      92 92          -0.9295     5.9628    -5.2478 92            1 DPPC    
      93 93           0.4140     7.0512    -5.7071 93            1 DPPC    
      94 94          -1.6207     8.0539    -5.5300 94            1 DPPC    
      95 95          -1.1119     9.0412    -5.4690 95            1 DPPC    
      96 96          -2.3552     7.9751    -4.7026 96            1 DPPC    
      97 97          -2.2930     7.9035    -6.9158 97            1 DPPC    
      98 98          -2.9886     8.7636    -7.0483 98            1 DPPC    
      99 99          -2.9034     6.9764    -6.8626 99            1 DPPC    
     100             -1.4192     7.8113    -8.0895               1 DPPC    
     101             -0.7545     6.9396    -7.9539               1 DPPC    
     102             -0.7065     8.6658    -8.0079               1 DPPC    
     103             -1.9806     7.7126    -9.4984               1 DPPC    
     104             -2.5456     8.6592    -9.5847               1 DPPC    
     105             -2.6430     6.8456    -9.7036               1 DPPC    
     106             -0.8285     7.7839   -10.5104               1 DPPC    
     107             -0.3164     6.8044   -10.4617               1 DPPC    
     108             -0.1296     8.6394   -10.4023               1 DPPC    
     109             -1.2653     7.8879   -12.0457               1 DPPC    
     110             -1.6710     8.9055   -12.2133               1 DPPC    
     111             -2.0122     7.1374   -12.3667               1 DPPC    
     112              0.0220     7.8484   -13.0287               1 DPPC    
     113              0.4799     6.8546   -12.8648               1 DPPC    
     114              0.7531     8.6531   -12.8231               1 DPPC    
     115             -0.3627     8.0616   -14.5069               1 DPPC    
     116             -0.8193     9.0784   -14.5093               1 DPPC    
     117             -1.1713     7.3288   -14.6689               1 DPPC    
     118              0.6859     7.9055   -15.6288               1 DPPC    
     119              0.8199     6.8131   -15.7390               1 DPPC    
     120              1.6595     8.3648   -15.3639               1 DPPC    
     121              0.0404     8.4259   -16.9451               1 DPPC    
     122             -0.2651     9.4881   -16.8517               1 DPPC    
     123             -0.7681     7.7549   -17.3235               1 DPPC    
     124              1.1619     8.3329   -18.0388               1 DPPC    
     125              1.5693     7.3106   -17.9040               1 DPPC    
     126              1.8154     9.1652   -17.6978               1 DPPC    
     127              0.5957     8.5212   -19.4527               1 DPPC    
     128             -0.3556     7.9715   -19.6088               1 DPPC    
     129              1.3307     8.0808   -20.1564               1 DPPC    
     130              0.3091     9.5904   -19.5301               1 DPPC    
@<TRIPOS>BOND
       1       84       87 1
       2        3        2 1
       3      118      121 1
       4      103      105 1
       5       88       90 1
       6       81       84 1
       7      109      111 1
       8       57       60 1
       9      106      109 1
      10       72       73 1
      11       40       42 1
      12       75       78 1
      13      115      116 1
      14       34       33 1
      15       15       14 1
      16       60       63 1
      17      124      125 1
      18       78       79 1
      19      127      130 1
      20       66       67 1
      21       33       31 1
      22        6        8 1
      23        1       14 1
      24        1       10 1
      25       25       27 1
      26       16       14 1
      27       72       74 1
      28       36       38 1
      29      121      123 1
      30       48       51 1
      31       32       31 1
      32       94       95 1
      33      112      115 1
      34       97       98 1
      35      100      101 1
      36      112      113 1
      37       94       97 1
      38       66       68 1
      39       57       59 1
      40      106      108 1
      41       17       14 1
      42        6        7 1
      43       72       75 1
      44      127      129 1
      45       75       77 1
      46       42       88 1
      47       88       89 1
      48       40       41 1
      49       20       21 1
      50        1        6 1
      51       36       28 1
      52       20       22 1
      53      106      107 1
      54      118      120 1
      55       25       26 1
      56       81       83 1
      57       45       46 1
      58       30       28 1
      59       25       28 1
      60       33       45 1
      61       45       47 1
      62       36       39 1
      63       31       30 1
      64       69       70 1
      65       66       69 1
      66       84       85 1
      67       23       25 1
      68       11       10 1
      69        1        2 1
      70       63       64 1
      71      115      117 1
      72       78       80 1
      73       97       99 1
      74        6        9 1
      75       69       72 1
      76       84       86 1
      77        2        4 1
      78       29       28 1
      79       97      100 1
      80      118      119 1
      81      109      112 1
      82       60       61 1
      83       81       82 1
      84       57       58 1
      85       94       96 1
      86      100      103 1
      87       37       36 1
      88       35       33 1
      89       19       17 1
      90      121      122 1
      91       91       92 1
      92      127      128 1
      93       78       81 1
      94      115      118 1
      95       51       53 1
      96      124      127 1
      97      103      106 1
      98       12       10 1
      99      121      124 1
     100       60       62 1
     101       13       10 1
     102       39       40 1
     103       48       50 1
     104       69       71 1
     105       20       23 1
     106       42       44 1
     107       51       54 1
     108      124      126 1
     109       75       76 1
     110      103      104 1
     111       42       43 1
     112      112      114 1
     113       88       91 1
     114       51       52 1
     115       91       93 1
     116       54       55 1
     117       54       56 1
     118       48       49 1
     119      100      102 1
     120       91       94 1
     121       18       17 1
     122      109      110 1
     123       20       24 1
     124       54       57 1
     125       63       66 1
     126       45       48 1
     127        2        5 1
     128       17       24 1
     129       63       65 1
@<TRIPOS>SUBSTRUCTURE
       1 DPPC            1 RESIDUE    0 **** ROOT      0
