@<TRIPOS>MOLECULE
DPPC
130 129 1 0 1
SMALL
USER_CHARGES
@<TRIPOS>CRYSIN
   13.9528    17.1622    31.1323    90.0000    90.0000    90.0000  1  1
@<TRIPOS>ATOM
       1 NTL          3.7648     8.6931     3.8504 NTL           1 DPPC      -0.600000
       2 CTL5         5.1892     9.0609     3.5936 CTL5          1 DPPC      -0.350000
       3 HL           5.3990     8.8693     2.5554 HL            1 DPPC       0.250000
       4 HL           5.9642     8.5880     4.1900 HL            1 DPPC       0.250000
       5 HL           5.2785    10.1270     3.7344 HL            1 DPPC       0.250000
       6 CTL5         3.4380     8.9250     5.3526 CTL5          1 DPPC      -0.350000
       7 HL           4.1212     8.3590     5.9759 HL            1 DPPC       0.250000
       8 HL           2.4632     8.5442     5.5919 HL            1 DPPC       0.250000
       9 HL           3.4584     9.9908     5.5478 HL            1 DPPC       0.250000
      10 CTL5         2.8411     9.5728     3.1023 CTL5          1 DPPC      -0.350000
      11 HL           2.8552    10.5639     3.5337 HL            1 DPPC       0.250000
      12 HL           1.8659     9.1149     3.1147 HL            1 DPPC       0.250000
      13 HL           3.1039     9.7320     2.0681 HL            1 DPPC       0.250000
      14 CTL2         3.5830     7.1875     3.3686 CTL2          1 DPPC      -0.100000
      15 HL           4.0088     6.4306     3.9999 HL            1 DPPC       0.250000
      16 HL           4.0371     7.1969     2.3902 HL            1 DPPC       0.250000
      17 CTL2         2.1217     6.7346     3.1354 CTL2          1 DPPC      -0.080000
      18 HAL2         2.0614     5.7993     2.5503 HAL2          1 DPPC       0.090000
      19 HAL2         1.5611     7.4906     2.5430 HAL2          1 DPPC       0.090000
      20 PL          -0.1558     6.4170     4.4541 PL            1 DPPC       1.500000
      21 O2L         -0.7278     7.6038     3.8783 O2L           1 DPPC      -0.780000
      22 O2L         -0.5108     6.0856     5.8561 O2L           1 DPPC      -0.780000
      23 OSLP        -0.2550     5.1063     3.5611 OSLP          1 DPPC      -0.570000
      24 OSLP         1.4656     6.5903     4.3667 OSLP          1 DPPC      -0.570000
      25 CTL2        -1.3494     4.4516     3.0710 CTL2          1 DPPC      -0.080000
      26 HAL2        -2.2996     5.0099     3.2677 HAL2          1 DPPC       0.090000
      27 HAL2        -1.4804     3.4307     3.4858 HAL2          1 DPPC       0.090000
      28 CTL1        -1.2636     4.4577     1.5403 CTL1          1 DPPC       0.170000
      29 HAL1        -2.3125     4.2046     1.2967 HAL1          1 DPPC       0.090000
      30 OSL         -0.3000     3.5881     1.0231 OSL           1 DPPC      -0.490000
      31 CL          -0.7217     2.4059     0.6195 CL            1 DPPC       0.900000
      32 OBL         -1.8731     2.0124     0.6958 OBL           1 DPPC      -0.630000
      33 CTL2         0.4398     1.4544     0.4111 CTL2          1 DPPC      -0.220000
      34 HAL2         0.8587     1.3536     1.4295 HAL2          1 DPPC       0.090000
      35 HAL2         1.0819     1.8342    -0.4034 HAL2          1 DPPC       0.090000
      36 CTL2        -0.9128     5.8905     0.9585 CTL2          1 DPPC       0.080000
      37 HAL2         0.1073     6.1191     1.3384 HAL2          1 DPPC       0.090000
      38 HAL2        -1.6966     6.5566     1.3771 HAL2          1 DPPC       0.090000
      39 OSL         -0.8062     5.8915    -0.4484 OSL           1 DPPC      -0.490000
      40 CL          -0.6079     6.9388    -1.0923 CL            1 DPPC       0.900000
      41 OBL         -0.3512     8.0321    -0.6661 OBL           1 DPPC      -0.630000
      42 CTL2        -0.8945     6.6354    -2.5916 CTL2          1 DPPC      -0.220000
      43 HAL2        -1.8001     7.2523    -2.7609 HAL2          1 DPPC       0.090000
      44 HAL2        -1.0608     5.5469    -2.7453 HAL2          1 DPPC       0.090000
      45 CTL2         0.0000     0.0000     0.0000 CTL2          1 DPPC      -0.180000
      46 HAL2        -0.6750    -0.4229     0.7763 HAL2          1 DPPC       0.090000
      47 HAL2         0.8781    -0.6789    -0.0458 HAL2          1 DPPC       0.090000
      48 CTL2        -0.6514    -0.2187    -1.3688 CTL2          1 DPPC      -0.180000
      49 HAL2        -1.5070     0.4759    -1.5223 HAL2          1 DPPC       0.090000
      50 HAL2        -1.0030    -1.2734    -1.4058 HAL2          1 DPPC       0.090000
      51 CTL2         0.2242    -0.0421    -2.5171 CTL2          1 DPPC      -0.180000
      52 HAL2         1.1857    -0.5863    -2.3889 HAL2          1 DPPC       0.090000
      53 HAL2         0.5397     1.0185    -2.6230 HAL2          1 DPPC       0.090000
      54 CTL2        -0.4632    -0.4915    -3.8514 CTL2          1 DPPC      -0.180000
      55 HAL2        -1.5293    -0.1824    -3.8078 HAL2          1 DPPC       0.090000
      56 HAL2        -0.5416    -1.5983    -3.9400 HAL2          1 DPPC       0.090000
      57 CTL2         0.2176     0.1442    -5.0607 CTL2          1 DPPC      -0.180000
      58 HAL2         1.3187     0.0171    -5.0098 HAL2          1 DPPC       0.090000
      59 HAL2         0.1228     1.2476    -5.0019 HAL2          1 DPPC       0.090000
      60 CTL2        -0.2975    -0.3511    -6.3978 CTL2          1 DPPC      -0.180000
      61 HAL2        -1.4012    -0.2277    -6.2959 HAL2          1 DPPC       0.090000
      62 HAL2        -0.0038    -1.3997    -6.6219 HAL2          1 DPPC       0.090000
      63 CTL2         0.2003     0.4525    -7.5127 CTL2          1 DPPC      -0.180000
      64 HAL2         1.3072     0.4057    -7.4577 HAL2          1 DPPC       0.090000
      65 HAL2        -0.2374     1.4730    -7.4414 HAL2          1 DPPC       0.090000
      66 CTL2        -0.1756    -0.0242    -8.8757 CTL2          1 DPPC      -0.180000
      67 HAL2        -1.2825    -0.0219    -8.8389 HAL2          1 DPPC       0.090000
      68 HAL2         0.1533    -1.0872    -8.8367 HAL2          1 DPPC       0.090000
      69 CTL2         0.2544     0.8056   -10.0193 CTL2          1 DPPC      -0.180000
      70 HAL2         1.3592     0.8982    -9.8839 HAL2          1 DPPC       0.090000
      71 HAL2        -0.2252     1.8150    -9.9882 HAL2          1 DPPC       0.090000
      72 CTL2        -0.0578     0.1954   -11.3445 CTL2          1 DPPC      -0.180000
      73 HAL2        -1.1657     0.2150   -11.4780 HAL2          1 DPPC       0.090000
      74 HAL2         0.0175    -0.9061   -11.2368 HAL2          1 DPPC       0.090000
      75 CTL2         0.7884     0.5930   -12.5384 CTL2          1 DPPC      -0.180000
      76 HAL2         1.8457     0.2492   -12.4463 HAL2          1 DPPC       0.090000
      77 HAL2         0.7702     1.7049   -12.5867 HAL2          1 DPPC       0.090000
      78 CTL2         0.1267     0.0216   -13.7837 CTL2          1 DPPC      -0.180000
      79 HAL2        -0.9374     0.3211   -13.8515 HAL2          1 DPPC       0.090000
      80 HAL2         0.2505    -1.0836   -13.8499 HAL2          1 DPPC       0.090000
      81 CTL2         0.7656     0.5607   -15.0941 CTL2          1 DPPC      -0.180000
      82 HAL2         1.8731     0.4418   -15.1416 HAL2          1 DPPC       0.090000
      83 HAL2         0.5780     1.6515   -15.0719 HAL2          1 DPPC       0.090000
      84 CTL3        -0.0000    -0.0000   -16.3036 CTL3          1 DPPC      -0.270000
      85 HAL3         0.1979    -1.0566   -16.5773 HAL3          1 DPPC       0.090000
      86 HAL3         0.2475     0.5863   -17.2141 HAL3          1 DPPC       0.090000
      87 HAL3        -1.0892     0.0691   -16.1321 HAL3          1 DPPC       0.090000
      88 CTL2         0.0924     7.1330    -3.6218 CTL2          1 DPPC      -0.180000
      89 HAL2         1.1236     6.7460    -3.5004 HAL2          1 DPPC       0.090000
      90 HAL2         0.1490     8.2366    -3.5369 HAL2          1 DPPC       0.090000
      91 CTL2        -0.5099     6.9871    -5.0991 CTL2          1 DPPC      -0.180000
      92 HAL2        -0.9295     5.9628    -5.2478 HAL2          1 DPPC       0.090000
      93 HAL2         0.4140     7.0512    -5.7071 HAL2          1 DPPC       0.090000
      94 CTL2        -1.6207     8.0539    -5.5300 CTL2          1 DPPC      -0.180000
      95 HAL2        -1.1119     9.0412    -5.4690 HAL2          1 DPPC       0.090000
      96 HAL2        -2.3552     7.9751    -4.7026 HAL2          1 DPPC       0.090000
      97 CTL2        -2.2930     7.9035    -6.9158 CTL2          1 DPPC      -0.180000
      98 HAL2        -2.9886     8.7636    -7.0483 HAL2          1 DPPC       0.090000
      99 HAL2        -2.9034     6.9764    -6.8626 HAL2          1 DPPC       0.090000
     100 CTL2        -1.4192     7.8113    -8.0895 CTL2          1 DPPC      -0.180000
     101 HAL2        -0.7545     6.9396    -7.9539 HAL2          1 DPPC       0.090000
     102 HAL2        -0.7065     8.6658    -8.0079 HAL2          1 DPPC       0.090000
     103 CTL2        -1.9806     7.7126    -9.4984 CTL2          1 DPPC      -0.180000
     104 HAL2        -2.5456     8.6592    -9.5847 HAL2          1 DPPC       0.090000
     105 HAL2        -2.6430     6.8456    -9.7036 HAL2          1 DPPC       0.090000
     106 CTL2        -0.8285     7.7839   -10.5104 CTL2          1 DPPC      -0.180000
     107 HAL2        -0.3164     6.8044   -10.4617 HAL2          1 DPPC       0.090000
     108 HAL2        -0.1296     8.6394   -10.4023 HAL2          1 DPPC       0.090000
     109 CTL2        -1.2653     7.8879   -12.0457 CTL2          1 DPPC      -0.180000
     110 HAL2        -1.6710     8.9055   -12.2133 HAL2          1 DPPC       0.090000
     111 HAL2        -2.0122     7.1374   -12.3667 HAL2          1 DPPC       0.090000
     112 CTL2         0.0220     7.8484   -13.0287 CTL2          1 DPPC      -0.180000
     113 HAL2         0.4799     6.8546   -12.8648 HAL2          1 DPPC       0.090000
     114 HAL2         0.7531     8.6531   -12.8231 HAL2          1 DPPC       0.090000
     115 CTL2        -0.3627     8.0616   -14.5069 CTL2          1 DPPC      -0.180000
     116 HAL2        -0.8193     9.0784   -14.5093 HAL2          1 DPPC       0.090000
     117 HAL2        -1.1713     7.3288   -14.6689 HAL2          1 DPPC       0.090000
     118 CTL2         0.6859     7.9055   -15.6288 CTL2          1 DPPC      -0.180000
     119 HAL2         0.8199     6.8131   -15.7390 HAL2          1 DPPC       0.090000
     120 HAL2         1.6595     8.3648   -15.3639 HAL2          1 DPPC       0.090000
     121 CTL2         0.0404     8.4259   -16.9451 CTL2          1 DPPC      -0.180000
     122 HAL2        -0.2651     9.4881   -16.8517 HAL2          1 DPPC       0.090000
     123 HAL2        -0.7681     7.7549   -17.3235 HAL2          1 DPPC       0.090000
     124 CTL2         1.1619     8.3329   -18.0388 CTL2          1 DPPC      -0.180000
     125 HAL2         1.5693     7.3106   -17.9040 HAL2          1 DPPC       0.090000
     126 HAL2         1.8154     9.1652   -17.6978 HAL2          1 DPPC       0.090000
     127 CTL3         0.5957     8.5212   -19.4527 CTL3          1 DPPC      -0.270000
     128 HAL3        -0.3556     7.9715   -19.6088 HAL3          1 DPPC       0.090000
     129 HAL3         1.3307     8.0808   -20.1564 HAL3          1 DPPC       0.090000
     130 HAL3         0.3091     9.5904   -19.5301 HAL3          1 DPPC       0.090000
@<TRIPOS>BOND
       1       84       85 1
       2       48       49 1
       3       14        1 1
       4        3        2 1
       5       51       53 1
       6      124      125 1
       7       88       89 1
       8       54       55 1
       9        4        2 1
      10       57       58 1
      11      112      113 1
      12       60       62 1
      13       40       41 1
      14       51       54 1
      15       63       65 1
      16       75       77 1
      17       14       16 1
      18       36       38 1
      19       72       74 1
      20       44       42 1
      21        8        6 1
      22       88       42 1
      23       45       46 1
      24       81       82 1
      25       94       96 1
      26       45       33 1
      27        2        5 1
      28      115      112 1
      29       69       72 1
      30       54       57 1
      31        1        6 1
      32       75       78 1
      33       72       75 1
      34       36       39 1
      35       28       29 1
      36      100      101 1
      37       91       93 1
      38      127      129 1
      39       97      100 1
      40       57       59 1
      41       25       28 1
      42       57       60 1
      43       94       95 1
      44       63       66 1
      45       54       56 1
      46       20       24 1
      47       17       24 1
      48       66       69 1
      49       20       23 1
      50      115      116 1
      51       45       47 1
      52       81       83 1
      53      106      109 1
      54      103      104 1
      55       31       32 1
      56      106      107 1
      57       20       22 1
      58       91       94 1
      59      127      130 1
      60       84       87 1
      61       48       51 1
      62       60       61 1
      63       78       79 1
      64       10       11 1
      65      118      119 1
      66       88       91 1
      67      124      127 1
      68       94       97 1
      69       78       81 1
      70       10       13 1
      71      118      121 1
      72      121      122 1
      73      100      103 1
      74       72       73 1
      75       48       50 1
      76       84       86 1
      77       36       37 1
      78       69       70 1
      79       33       34 1
      80       66       68 1
      81        1        2 1
      82       10        1 1
      83      109      110 1
      84      121      124 1
      85      103      105 1
      86       66       67 1
      87       31       33 1
      88       30       31 1
      89      109      111 1
      90        7        6 1
      91       28       36 1
      92       43       42 1
      93      109      112 1
      94      112      114 1
      95       40       42 1
      96      121      123 1
      97      100      102 1
      98       28       30 1
      99        9        6 1
     100       17       18 1
     101      115      117 1
     102       14       15 1
     103      106      108 1
     104       60       63 1
     105       33       35 1
     106       69       71 1
     107      124      126 1
     108       88       90 1
     109       91       92 1
     110      127      128 1
     111       75       76 1
     112       39       40 1
     113       78       80 1
     114       97       98 1
     115       25       26 1
     116       51       52 1
     117      118      120 1
     118       10       12 1
     119       97       99 1
     120       25       27 1
     121       23       25 1
     122       63       64 1
     123       45       48 1
     124       17       19 1
     125       81       84 1
     126       14       17 1
     127      115      118 1
     128       20       21 1
     129      103      106 1
@<TRIPOS>SUBSTRUCTURE
       1 DPPC            1 RESIDUE    0 **** ROOT      0
