@<TRIPOS>MOLECULE
DPPC
130 129 1 0 1
SMALL
NO_CHARGES
@<TRIPOS>CRYSIN
   14.4335    17.2378    31.0944    90.0000    90.0000    90.0000  1  1
@<TRIPOS>ATOM
       1 NTL          4.7112     8.9469    19.8415 NTL           1 DPPC    
       2 CTL5         6.1259     9.2987    19.5176 CTL5          1 DPPC    
       3 HL           6.2886     9.0905    18.4741 HL            1 DPPC    
       4 HL           6.9224     8.8276    20.0864 HL            1 DPPC    
       5 HL           6.2298    10.3658    19.6387 HL            1 DPPC    
       6 CTL5         4.4522     9.2029    21.3530 CTL5          1 DPPC    
       7 HL           5.1574     8.6401    21.9541 HL            1 DPPC    
       8 HL           3.4857     8.8340    21.6400 HL            1 DPPC    
       9 HL           4.4896    10.2713    21.5315 HL            1 DPPC    
      10 CTL5         3.7628     9.8237    19.1216 CTL5          1 DPPC    
      11 HL           3.8037    10.8207    19.5374 HL            1 DPPC    
      12 HL           2.7854     9.3745    19.1832 HL            1 DPPC    
      13 HL           3.9814     9.9659    18.0747 HL            1 DPPC    
      14 CTL2         4.4965     7.4361    19.3901 CTL2          1 DPPC    
      15 HL           4.9434     6.6847    20.0133 HL            1 DPPC    
      16 HL           4.9075     7.4276    18.3929 HL            1 DPPC    
      17 CTL2         3.0228     6.9926    19.2275 CTL2          1 DPPC    
      18 HAL2         2.9295     6.0496    18.6593 HAL2          1 DPPC    
      19 HAL2         2.4429     7.7449    18.6491 HAL2          1 DPPC    
      20 PL           0.8026     6.7135    20.6487 PL            1 DPPC    
      21 O2L          0.2155     7.8969    20.0810 O2L           1 DPPC    
      22 O2L          0.5065     6.4053    22.0695 O2L           1 DPPC    
      23 OSLP         0.6540     5.3911    19.7801 OSLP          1 DPPC    
      24 OSLP         2.4199     6.8716    20.4882 OSLP          1 DPPC    
      25 CTL2        -0.4659     4.7389    19.3478 CTL2          1 DPPC    
      26 HAL2        -1.4021     5.3082    19.5775 HAL2          1 DPPC    
      27 HAL2        -0.5869     3.7253    19.7828 HAL2          1 DPPC    
      28 CTL1        -0.4471     4.7225    17.8149 CTL1          1 DPPC    
      29 HAL1        -1.5077     4.4750    17.6209 HAL1          1 DPPC    
      30 OSL          0.4860     3.8373    17.2690 OSL           1 DPPC    
      31 CL           0.0377     2.6532    16.9015 CL            1 DPPC    
      32 OBL         -1.1125     2.2708    17.0336 OBL           1 DPPC    
      33 CTL2         1.1813     1.6888    16.6566 CTL2          1 DPPC    
      34 HAL2         1.6435     1.5990    17.6571 HAL2          1 DPPC    
      35 HAL2         1.7901     2.0514    15.8094 HAL2          1 DPPC    
      36 CTL2        -0.1106     6.1438    17.1975 CTL2          1 DPPC    
      37 HAL2         0.9270     6.3690    17.5292 HAL2          1 DPPC    
      38 HAL2        -0.8700     6.8225    17.6400 HAL2          1 DPPC    
      39 OSL         -0.0655     6.1238    15.7874 OSL           1 DPPC    
      40 CL           0.1128     7.1601    15.1203 CL            1 DPPC    
      41 OBL          0.3966     8.2571    15.5188 OBL           1 DPPC    
      42 CTL2        -0.2414     6.8378    13.6394 CTL2          1 DPPC    
      43 HAL2        -1.1486     7.4600    13.5007 HAL2          1 DPPC    
      44 HAL2        -0.4230     5.7487    13.5090 HAL2          1 DPPC    
      45 CTL2         0.7123     0.2326    16.2864 CTL2          1 DPPC    
      46 HAL2         0.0684    -0.1734    17.0975 HAL2          1 DPPC    
      47 HAL2         1.5821    -0.4545    16.2123 HAL2          1 DPPC    
      48 CTL2         0.0000     0.0000    14.9506 CTL2          1 DPPC    
      49 HAL2        -0.8559     0.6997    14.8244 HAL2          1 DPPC    
      50 HAL2        -0.3613    -1.0521    14.9444 HAL2          1 DPPC    
      51 CTL2         0.8260     0.1526    13.7628 CTL2          1 DPPC    
      52 HAL2         1.7878    -0.3980    13.8570 HAL2          1 DPPC    
      53 HAL2         1.1450     1.2089    13.6277 HAL2          1 DPPC    
      54 CTL2         0.0774    -0.3098    12.4664 CTL2          1 DPPC    
      55 HAL2        -0.9833     0.0091    12.5519 HAL2          1 DPPC    
      56 HAL2        -0.0137    -1.4171    12.3975 HAL2          1 DPPC    
      57 CTL2         0.7097     0.3027    11.2194 CTL2          1 DPPC    
      58 HAL2         1.8110     0.1668    11.2242 HAL2          1 DPPC    
      59 HAL2         0.6264     1.4075    11.2661 HAL2          1 DPPC    
      60 CTL2         0.1327    -0.2072     9.9134 CTL2          1 DPPC    
      61 HAL2        -0.9644    -0.0728    10.0615 HAL2          1 DPPC    
      62 HAL2         0.4079    -1.2614     9.6921 HAL2          1 DPPC    
      63 CTL2         0.5878     0.5761     8.7663 CTL2          1 DPPC    
      64 HAL2         1.6956     0.5206     8.7736 HAL2          1 DPPC    
      65 HAL2         0.1618     1.6013     8.8416 HAL2          1 DPPC    
      66 CTL2         0.1489     0.0832     7.4280 CTL2          1 DPPC    
      67 HAL2        -0.9553     0.0957     7.5130 HAL2          1 DPPC    
      68 HAL2         0.4706    -0.9818     7.4682 HAL2          1 DPPC    
      69 CTL2         0.5352     0.8930     6.2548 CTL2          1 DPPC    
      70 HAL2         1.6455     0.9779     6.3406 HAL2          1 DPPC    
      71 HAL2         0.0655     1.9068     6.2920 HAL2          1 DPPC    
      72 CTL2         0.1605     0.2666     4.9535 CTL2          1 DPPC    
      73 HAL2        -0.9520     0.2939     4.8682 HAL2          1 DPPC    
      74 HAL2         0.2316    -0.8338     5.0739 HAL2          1 DPPC    
      75 CTL2         0.9568     0.6398     3.7182 CTL2          1 DPPC    
      76 HAL2         2.0144     0.2882     3.7692 HAL2          1 DPPC    
      77 HAL2         0.9454     1.7510     3.6545 HAL2          1 DPPC    
      78 CTL2         0.2369     0.0564     2.5114 CTL2          1 DPPC    
      79 HAL2        -0.8267     0.3641     2.4857 HAL2          1 DPPC    
      80 HAL2         0.3488    -1.0506     2.4561 HAL2          1 DPPC    
      81 CTL2         0.8222     0.5713     1.1666 CTL2          1 DPPC    
      82 HAL2         1.9256     0.4421     1.0727 HAL2          1 DPPC    
      83 HAL2         0.6445     1.6638     1.1811 HAL2          1 DPPC    
      84 CTL3         0.0000     0.0000     0.0000 CTL3          1 DPPC    
      85 HAL3         0.1773    -1.0621    -0.2666 HAL3          1 DPPC    
      86 HAL3         0.2121     0.5711    -0.9289 HAL3          1 DPPC    
      87 HAL3        -1.0801     0.0810     0.2178 HAL3          1 DPPC    
      88 CTL2         0.7035     7.3121    12.5601 CTL2          1 DPPC    
      89 HAL2         1.7359     6.9180    12.6421 HAL2          1 DPPC    
      90 HAL2         0.7726     8.4163    12.6263 HAL2          1 DPPC    
      91 CTL2         0.0361     7.1504    11.1126 CTL2          1 DPPC    
      92 HAL2        -0.3978     6.1277    10.9974 HAL2          1 DPPC    
      93 HAL2         0.9330     7.1978    10.4641 HAL2          1 DPPC    
      94 CTL2        -1.0839     8.2204    10.7150 CTL2          1 DPPC    
      95 HAL2        -0.5651     9.2041    10.7394 HAL2          1 DPPC    
      96 HAL2        -1.7822     8.1598    11.5747 HAL2          1 DPPC    
      97 CTL2        -1.8173     8.0561     9.3622 CTL2          1 DPPC    
      98 HAL2        -2.5111     8.9202     9.2476 HAL2          1 DPPC    
      99 HAL2        -2.4322     7.1352     9.4554 HAL2          1 DPPC    
     100 CTL2        -0.9964     7.9396     8.1530 CTL2          1 DPPC    
     101 HAL2        -0.3334     7.0643     8.2722 HAL2          1 DPPC    
     102 HAL2        -0.2740     8.7890     8.1909 HAL2          1 DPPC    
     103 CTL2        -1.6196     7.8257     6.7715 CTL2          1 DPPC    
     104 HAL2        -2.1802     8.7758     6.6960 HAL2          1 DPPC    
     105 HAL2        -2.2972     6.9616     6.6080 HAL2          1 DPPC    
     106 CTL2        -0.5122     7.8726     5.7093 CTL2          1 DPPC    
     107 HAL2        -0.0064     6.8895     5.7500 HAL2          1 DPPC    
     108 HAL2         0.1976     8.7235     5.7744 HAL2          1 DPPC    
     109 CTL2        -1.0148     7.9585     4.1931 CTL2          1 DPPC    
     110 HAL2        -1.4193     8.9770     4.0285 HAL2          1 DPPC    
     111 HAL2        -1.7810     7.2099     3.9160 HAL2          1 DPPC    
     112 CTL2         0.2279     7.8938     3.1557 CTL2          1 DPPC    
     113 HAL2         0.6845     6.8986     3.3139 HAL2          1 DPPC    
     114 HAL2         0.9737     8.6950     3.3174 HAL2          1 DPPC    
     115 CTL2        -0.2193     8.0892     1.6927 CTL2          1 DPPC    
     116 HAL2        -0.6675     9.1098     1.6953 HAL2          1 DPPC    
     117 HAL2        -1.0401     7.3612     1.5768 HAL2          1 DPPC    
     118 CTL2         0.7780     7.9081     0.5286 CTL2          1 DPPC    
     119 HAL2         0.8983     6.8131     0.4286 HAL2          1 DPPC    
     120 HAL2         1.7659     8.3627     0.7440 HAL2          1 DPPC    
     121 CTL2         0.0797     8.4152    -0.7659 CTL2          1 DPPC    
     122 HAL2        -0.2129     9.4812    -0.6747 HAL2          1 DPPC    
     123 HAL2        -0.7498     7.7459    -1.0988 HAL2          1 DPPC    
     124 CTL2         1.1516     8.2970    -1.9059 CTL2          1 DPPC    
     125 HAL2         1.5563     7.2732    -1.7740 HAL2          1 DPPC    
     126 HAL2         1.8260     9.1284    -1.6059 HAL2          1 DPPC    
     127 CTL3         0.5257     8.4699    -3.2963 CTL3          1 DPPC    
     128 HAL3        -0.4358     7.9263    -3.4028 HAL3          1 DPPC    
     129 HAL3         1.2257     8.0132    -4.0249 HAL3          1 DPPC    
     130 HAL3         0.2446     9.5404    -3.3768 HAL3          1 DPPC    
@<TRIPOS>BOND
       1       25       26 1
       2       97       98 1
       3      127      128 1
       4       36       39 1
       5       72       75 1
       6        6        9 1
       7       78       81 1
       8      127      130 1
       9      100      102 1
      10       28       30 1
      11       51       53 1
      12      103      104 1
      13       31       32 1
      14      106      107 1
      15       42       88 1
      16       17       18 1
      17      109      111 1
      18        2        3 1
      19       72       73 1
      20       36       37 1
      21      100      103 1
      22      124      126 1
      23       40       42 1
      24      112      114 1
      25       88       90 1
      26       63       65 1
      27       39       40 1
      28      121      123 1
      29       75       76 1
      30        1        6 1
      31        2        5 1
      32       94       95 1
      33       48       50 1
      34       84       86 1
      35       75       78 1
      36       92       91 1
      37        4        2 1
      38       51       52 1
      39       20       24 1
      40       10       13 1
      41      118      121 1
      42      103      106 1
      43       94       91 1
      44      124      127 1
      45       88       91 1
      46      121      124 1
      47      127      129 1
      48       54       55 1
      49        1        2 1
      50      106      108 1
      51       48       51 1
      52       84       87 1
      53      106      109 1
      54       66       69 1
      55      112      115 1
      56       60       61 1
      57      103      105 1
      58       31       33 1
      59       28       36 1
      60      115      118 1
      61       69       72 1
      62       20       21 1
      63       45       48 1
      64       94       96 1
      65       81       84 1
      66       54       56 1
      67       75       77 1
      68       69       71 1
      69       33       35 1
      70       97      100 1
      71       25       28 1
      72      109      110 1
      73       57       59 1
      74       45       46 1
      75       81       82 1
      76       33       45 1
      77       24       17 1
      78      121      122 1
      79       25       27 1
      80       97       99 1
      81      118      119 1
      82       10       11 1
      83       60       62 1
      84      115      117 1
      85       14       15 1
      86       45       47 1
      87       93       91 1
      88       81       83 1
      89       60       63 1
      90      115      116 1
      91       14       16 1
      92       14       17 1
      93       17       19 1
      94        1       10 1
      95       51       54 1
      96       66       67 1
      97       30       31 1
      98       20       22 1
      99       63       64 1
     100      109      112 1
     101      118      120 1
     102       10       12 1
     103        6        7 1
     104       78       79 1
     105       42       43 1
     106      124      125 1
     107       88       89 1
     108       28       29 1
     109      100      101 1
     110       23       25 1
     111       57       58 1
     112       84       85 1
     113       48       49 1
     114       72       74 1
     115       36       38 1
     116      112      113 1
     117       40       41 1
     118       94       97 1
     119       66       68 1
     120       20       23 1
     121       63       66 1
     122       54       57 1
     123       42       44 1
     124       69       70 1
     125       33       34 1
     126        6        8 1
     127       78       80 1
     128       57       60 1
     129        1       14 1
@<TRIPOS>SUBSTRUCTURE
       1 DPPC            1 RESIDUE    0 **** ROOT      0
