@<TRIPOS>MOLECULE
ecer3
108 107 1 0 1
SMALL
NO_CHARGES
@<TRIPOS>CRYSIN
   10.0305    11.9637    28.4828    90.0000    90.0000    90.0000  1  1
@<TRIPOS>ATOM
       1 NH1         -0.9642    -0.8268    20.1477 NH1           1 ecer3   
       2 HN1         -1.5426    -0.9828    20.9581 HN1           1 ecer3   
       3 CLN         -1.4389    -1.3274    18.9648 CLN           1 ecer3   
       4 OBL         -2.5564    -1.8253    18.8796 OBL           1 ecer3   
       5 CTL2        -0.5981    -1.1416    17.6882 CTL2          1 ecer3   
       6 HAL2        -0.2604    -0.0944    17.7342 HAL2          1 ecer3   
       7 HAL2         0.2863    -1.8072    17.7424 HAL2          1 ecer3   
       8 CTL2        -1.3564    -1.3179    16.3566 CTL2          1 ecer3   
       9 HAL2        -2.2553    -0.6589    16.3400 HAL2          1 ecer3   
      10 HAL2        -1.7114    -2.3702    16.2823 HAL2          1 ecer3   
      11 CTL2        -0.4820    -0.9994    15.1475 CTL2          1 ecer3   
      12 HAL2         0.4301    -1.6383    15.1535 HAL2          1 ecer3   
      13 HAL2        -0.1531     0.0575    15.2090 HAL2          1 ecer3   
      14 CTL2        -1.2329    -1.1995    13.8374 CTL2          1 ecer3   
      15 HAL2        -2.1400    -0.5525    13.8283 HAL2          1 ecer3   
      16 HAL2        -1.5647    -2.2595    13.7641 HAL2          1 ecer3   
      17 CTL2        -0.3759    -0.8652    12.6263 CTL2          1 ecer3   
      18 HAL2         0.5464    -1.4887    12.6239 HAL2          1 ecer3   
      19 HAL2        -0.0627     0.1963    12.6888 HAL2          1 ecer3   
      20 CTL2        -1.1390    -1.0772    11.3284 CTL2          1 ecer3   
      21 HAL2        -2.0555    -0.4440    11.3272 HAL2          1 ecer3   
      22 HAL2        -1.4553    -2.1415    11.2576 HAL2          1 ecer3   
      23 CTL2        -0.2946    -0.7299    10.1146 CTL2          1 ecer3   
      24 HAL2         0.6381    -1.3374    10.1123 HAL2          1 ecer3   
      25 HAL2         0.0005     0.3363    10.1814 HAL2          1 ecer3   
      26 CTL2        -1.0552    -0.9546     8.8169 CTL2          1 ecer3   
      27 HAL2        -1.9837    -0.3393     8.8205 HAL2          1 ecer3   
      28 HAL2        -1.3515    -2.0245     8.7489 HAL2          1 ecer3   
      29 CTL2        -0.2163    -0.5890     7.6024 CTL2          1 ecer3   
      30 HAL2         0.7293    -1.1755     7.6073 HAL2          1 ecer3   
      31 HAL2         0.0559     0.4828     7.6767 HAL2          1 ecer3   
      32 CTL2        -0.9642    -0.8268     6.2972 CTL2          1 ecer3   
      33 HAL2        -1.9058    -0.2329     6.3044 HAL2          1 ecer3   
      34 HAL2        -1.2376    -1.9024     6.2305 HAL2          1 ecer3   
      35 CTL2        -0.1308    -0.4394     5.0818 CTL2          1 ecer3   
      36 HAL2         0.8264    -1.0056     5.0908 HAL2          1 ecer3   
      37 HAL2         0.1199     0.6364     5.1685 HAL2          1 ecer3   
      38 CTL2        -0.8673    -0.6807     3.7665 CTL2          1 ecer3   
      39 HAL2        -1.8226    -0.1095     3.7836 HAL2          1 ecer3   
      40 HAL2        -1.1156    -1.7616     3.6902 HAL2          1 ecer3   
      41 CTL2        -0.0462    -0.2577     2.5473 CTL2          1 ecer3   
      42 HAL2         0.9141    -0.8202     2.5398 HAL2          1 ecer3   
      43 HAL2         0.2001     0.8164     2.6641 HAL2          1 ecer3   
      44 CTL2        -0.7910    -0.4726     1.2249 CTL2          1 ecer3   
      45 HAL2        -1.7631     0.0702     1.2600 HAL2          1 ecer3   
      46 HAL2        -1.0109    -1.5586     1.1214 HAL2          1 ecer3   
      47 CTL3         0.0000     0.0000    -0.0000 CTL3          1 ecer3   
      48 HAL3         1.0098    -0.4663     0.0020 HAL3          1 ecer3   
      49 HAL3         0.1264     1.1029     0.0402 HAL3          1 ecer3   
      50 HAL3        -0.4995    -0.2488    -0.9593 HAL3          1 ecer3   
      51 CTL1         0.3543    -0.1673    20.4027 CTL1          1 ecer3   
      52 HAL1         1.0261    -0.4203    19.5532 HAL1          1 ecer3   
      53 CTL2         1.0237    -0.8499    21.6465 CTL2          1 ecer3   
      54 HAL2         0.3412    -0.7924    22.5235 HAL2          1 ecer3   
      55 HAL2         1.9522    -0.2857    21.8924 HAL2          1 ecer3   
      56 OHL          1.3820    -2.2101    21.3903 OHL           1 ecer3   
      57 HOL          1.6885    -2.5832    22.2221 HOL           1 ecer3   
      58 CTL1         0.1126     1.3856    20.5284 CTL1          1 ecer3   
      59 HAL1        -0.9659     1.5855    20.3311 HAL1          1 ecer3   
      60 OHL          0.3629     1.8695    21.8558 OHL           1 ecer3   
      61 HOL          0.2879     2.8268    21.8286 HOL           1 ecer3   
      62 CTL1         0.9228     2.2197    19.4787 CTL1          1 ecer3   
      63 HAL1         1.1487     3.2024    19.9495 HAL1          1 ecer3   
      64 OHL          2.1973     1.6488    19.1634 OHL           1 ecer3   
      65 HOL          2.4741     2.0413    18.3307 HOL           1 ecer3   
      66 CTL2         0.1009     2.5526    18.1801 CTL2          1 ecer3   
      67 HAL2        -0.2105     3.6177    18.2501 HAL2          1 ecer3   
      68 HAL2        -0.8412     1.9605    18.1310 HAL2          1 ecer3   
      69 CTL2         0.8118     2.3956    16.8187 CTL2          1 ecer3   
      70 HAL2         1.1597     1.3443    16.6896 HAL2          1 ecer3   
      71 HAL2         1.7085     3.0552    16.7858 HAL2          1 ecer3   
      72 CTL2        -0.0753     2.7491    15.6283 CTL2          1 ecer3   
      73 HAL2        -0.4473     3.7937    15.7222 HAL2          1 ecer3   
      74 HAL2        -0.9637     2.0765    15.6070 HAL2          1 ecer3   
      75 CTL2         0.6907     2.6160    14.3126 CTL2          1 ecer3   
      76 HAL2         1.1083     1.5877    14.2177 HAL2          1 ecer3   
      77 HAL2         1.5487     3.3247    14.3132 HAL2          1 ecer3   
      78 CTL2        -0.1877     2.8986    13.1013 CTL2          1 ecer3   
      79 HAL2        -0.6229     3.9189    13.1877 HAL2          1 ecer3   
      80 HAL2        -1.0320     2.1719    13.0861 HAL2          1 ecer3   
      81 CTL2         0.5968     2.7991    11.7968 CTL2          1 ecer3   
      82 HAL2         1.0701     1.7942    11.7151 HAL2          1 ecer3   
      83 HAL2         1.4152     3.5530    11.8059 HAL2          1 ecer3   
      84 CTL2        -0.2990     3.0301    10.5877 CTL2          1 ecer3   
      85 HAL2        -0.7893     4.0248    10.6805 HAL2          1 ecer3   
      86 HAL2        -1.1019     2.2575    10.5808 HAL2          1 ecer3   
      87 CTL2         0.4839     2.9750     9.2811 CTL2          1 ecer3   
      88 HAL2         1.0101     1.9971     9.1997 HAL2          1 ecer3   
      89 HAL2         1.2608     3.7715     9.2930 HAL2          1 ecer3   
      90 CTL2        -0.4265     3.1608     8.0730 CTL2          1 ecer3   
      91 HAL2        -0.9674     4.1285     8.1704 HAL2          1 ecer3   
      92 HAL2        -1.1885     2.3479     8.0660 HAL2          1 ecer3   
      93 CTL2         0.3565     3.1498     6.7625 CTL2          1 ecer3   
      94 HAL2         0.9326     2.2007     6.6810 HAL2          1 ecer3   
      95 HAL2         1.0928     3.9839     6.7785 HAL2          1 ecer3   
      96 CTL2        -0.5555     3.2922     5.5448 CTL2          1 ecer3   
      97 HAL2        -1.1457     4.2306     5.6416 HAL2          1 ecer3   
      98 HAL2        -1.2745     2.4409     5.5326 HAL2          1 ecer3   
      99 CTL2         0.2333     3.3249     4.2326 CTL2          1 ecer3   
     100 HAL2         0.8551     2.4048     4.1577 HAL2          1 ecer3   
     101 HAL2         0.9307     4.1915     4.2590 HAL2          1 ecer3   
     102 CTL2        -0.6689     3.4267     2.9990 CTL2          1 ecer3   
     103 HAL2        -1.2991     4.3395     3.0911 HAL2          1 ecer3   
     104 HAL2        -1.3544     2.5479     2.9870 HAL2          1 ecer3   
     105 CTL3         0.1080     3.4817     1.6804 CTL3          1 ecer3   
     106 HAL3        -0.5910     3.5143     0.8183 HAL3          1 ecer3   
     107 HAL3         0.7584     2.5876     1.5692 HAL3          1 ecer3   
     108 HAL3         0.7597     4.3805     1.6464 HAL3          1 ecer3   
@<TRIPOS>BOND
       1        5        6 1
       2       42       41 1
       3       53       56 1
       4       72       75 1
       5       78       81 1
       6        8       10 1
       7       87       89 1
       8       11       12 1
       9       14       15 1
      10       17       19 1
      11       72       73 1
      12        1        2 1
      13       38       41 1
      14       51       52 1
      15        8       11 1
      16       20       22 1
      17       32       34 1
      18       99      101 1
      19       75       76 1
      20       29       31 1
      21       37       35 1
      22       84       86 1
      23       75       78 1
      24       87       88 1
      25       47       49 1
      26       26       29 1
      27       11       14 1
      28       38       40 1
      29       53       55 1
      30       32       35 1
      31       29       32 1
      32       90       91 1
      33       39       38 1
      34       47       50 1
      35       14       16 1
      36       84       87 1
      37       14       17 1
      38      102      105 1
      39       66       69 1
      40       20       23 1
      41       96       97 1
      42       11       13 1
      43       23       26 1
      44       44       45 1
      45      105      108 1
      46       58       62 1
      47       69       72 1
      48       90       93 1
      49       81       84 1
      50       75       77 1
      51       44       46 1
      52      105      107 1
      53       69       71 1
      54       44       47 1
      55        5        8 1
      56       17       18 1
      57       93       95 1
      58       60       61 1
      59       56       57 1
      60       53       54 1
      61       81       82 1
      62        3        4 1
      63        3        5 1
      64       62       63 1
      65       47       48 1
      66       59       58 1
      67       29       30 1
      68        5        7 1
      69       26       27 1
      70       96       98 1
      71       23       25 1
      72       81       83 1
      73       96       99 1
      74       23       24 1
      75       36       35 1
      76       60       58 1
      77       62       64 1
      78       44       41 1
      79       51       53 1
      80       87       90 1
      81      102      103 1
      82       66       67 1
      83       99      100 1
      84       17       20 1
      85       26       28 1
      86       78       79 1
      87       32       33 1
      88        1        3 1
      89       62       66 1
      90       43       41 1
      91        8        9 1
      92       64       65 1
      93       93       94 1
      94       84       85 1
      95       72       74 1
      96        1       51 1
      97       20       21 1
      98       38       35 1
      99      102      104 1
     100       66       68 1
     101       99      102 1
     102       51       58 1
     103       78       80 1
     104      105      106 1
     105       69       70 1
     106       90       92 1
     107       93       96 1
@<TRIPOS>SUBSTRUCTURE
       1 ecer3           1 RESIDUE    0 **** ROOT      0
