@<TRIPOS>MOLECULE
ecer3
108 107 1 0 1
SMALL
NO_CHARGES
@<TRIPOS>CRYSIN
   10.3278    12.2696    28.3309    90.0000    90.0000    90.0000  1  1
@<TRIPOS>ATOM
       1 N1           0.6785     2.3213     0.0613 NH1           1 ecer3   
       2 H2           0.1895     2.5393     0.9151 HN1           1 ecer3   
       3 C3           0.3335     3.0645    -1.0358 CLN           1 ecer3   
       4 O4          -0.5995     3.8598    -1.0063 OBL           1 ecer3   
       5 C5           1.0534     2.7977    -2.3706 CTL2          1 ecer3   
       6 H6           1.0824     1.6997    -2.4501 HAL2          1 ecer3   
       7 H7           2.0910     3.1806    -2.3002 HAL2          1 ecer3   
       8 C8           0.3409     3.3272    -3.6321 CTL2          1 ecer3   
       9 H9          -0.7077     2.9504    -3.6637 HAL2          1 ecer3   
      10 H10          0.2959     4.4381    -3.5793 HAL2          1 ecer3   
      11 C11          1.0573     2.9168    -4.9152 CTL2          1 ecer3   
      12 H12          2.1126     3.2721    -4.8969 HAL2          1 ecer3   
      13 H13          1.0756     1.8103    -4.9796 HAL2          1 ecer3   
      14 C14          0.3591     3.4646    -6.1533 CTL2          1 ecer3   
      15 H15         -0.6937     3.1006    -6.1758 HAL2          1 ecer3   
      16 H16          0.3386     4.5762    -6.1001 HAL2          1 ecer3   
      17 C17          1.0543     3.0442    -7.4389 CTL2          1 ecer3   
      18 H18          2.1149     3.3828    -7.4312 HAL2          1 ecer3   
      19 H19          1.0563     1.9375    -7.5020 HAL2          1 ecer3   
      20 C20          0.3482     3.6053    -8.6631 CTL2          1 ecer3   
      21 H21         -0.7096     3.2562    -8.6758 HAL2          1 ecer3   
      22 H22          0.3438     4.7164    -8.6078 HAL2          1 ecer3   
      23 C23          1.0276     3.1764    -9.9521 CTL2          1 ecer3   
      24 H24          2.0936     3.4968    -9.9463 HAL2          1 ecer3   
      25 H25          1.0109     2.0697   -10.0102 HAL2          1 ecer3   
      26 C26          0.3273     3.7488   -11.1748 CTL2          1 ecer3   
      27 H27         -0.7367     3.4197   -11.1802 HAL2          1 ecer3   
      28 H28          0.3439     4.8595   -11.1173 HAL2          1 ecer3   
      29 C29          0.9962     3.3041   -12.4660 CTL2          1 ecer3   
      30 H30          2.0689     3.6001   -12.4559 HAL2          1 ecer3   
      31 H31          0.9563     2.1976   -12.5159 HAL2          1 ecer3   
      32 C32          0.3118     3.8864   -13.6956 CTL2          1 ecer3   
      33 H33         -0.7587     3.5808   -13.6945 HAL2          1 ecer3   
      34 H34          0.3518     4.9959   -13.6375 HAL2          1 ecer3   
      35 C35          0.9693     3.4224   -14.9895 CTL2          1 ecer3   
      36 H36          2.0473     3.6953   -14.9782 HAL2          1 ecer3   
      37 H37          0.9079     2.3167   -15.0264 HAL2          1 ecer3   
      38 C38          0.2964     4.0060   -16.2294 CTL2          1 ecer3   
      39 H39         -0.7806     3.7248   -16.2155 HAL2          1 ecer3   
      40 H40          0.3618     5.1148   -16.1819 HAL2          1 ecer3   
      41 C41          0.9319     3.5120   -17.5300 CTL2          1 ecer3   
      42 H42          2.0116     3.7824   -17.5357 HAL2          1 ecer3   
      43 H43          0.8677     2.4056   -17.5366 HAL2          1 ecer3   
      44 C44          0.2435     4.0734   -18.7792 CTL2          1 ecer3   
      45 H45         -0.8411     3.8220   -18.7435 HAL2          1 ecer3   
      46 H46          0.3368     5.1823   -18.7598 HAL2          1 ecer3   
      47 C47          0.8359     3.5411   -20.0888 CTL3          1 ecer3   
      48 H48          1.9360     3.7049   -20.0975 HAL3          1 ecer3   
      49 H49          0.6465     2.4494   -20.1675 HAL3          1 ecer3   
      50 H50          0.4019     4.0257   -20.9880 HAL3          1 ecer3   
      51 C51          1.7632     1.2968     0.1726 CTL1          1 ecer3   
      52 H52          2.4564     1.4473    -0.6840 HAL1          1 ecer3   
      53 C53          2.6309     1.6213     1.4387 CTL2          1 ecer3   
      54 H54          1.9834     1.6571     2.3429 HAL2          1 ecer3   
      55 H55          3.3683     0.7971     1.5728 HAL2          1 ecer3   
      56 O56          3.3521     2.8480     1.3011 OHL           1 ecer3   
      57 H57          3.7734     3.0248     2.1474 HOL           1 ecer3   
      58 C58          1.0958    -0.1315     0.1545 CTL1          1 ecer3   
      59 H59          0.0000     0.0000     0.0000 HAL1          1 ecer3   
      60 O60          1.2343    -0.8127     1.4098 OHL           1 ecer3   
      61 H61          0.8910    -1.7019     1.2904 HOL           1 ecer3   
      62 C62          1.6092    -1.0338    -1.0187 CTL1          1 ecer3   
      63 H63          1.5605    -2.0873    -0.6632 HAL1          1 ecer3   
      64 O64          2.9843    -0.8080    -1.3471 OHL           1 ecer3   
      65 H65          3.1167    -1.1652    -2.2297 HOL           1 ecer3   
      66 C66          0.6926    -0.9761    -2.2951 CTL2          1 ecer3   
      67 H67          0.0949    -1.9135    -2.3154 HAL2          1 ecer3   
      68 H68         -0.0447    -0.1439    -2.2303 HAL2          1 ecer3   
      69 C69          1.3826    -0.8702    -3.6721 CTL2          1 ecer3   
      70 H70          2.0099     0.0505    -3.7141 HAL2          1 ecer3   
      71 H71          2.0551    -1.7450    -3.8227 HAL2          1 ecer3   
      72 C72          0.4006    -0.8262    -4.8395 CTL2          1 ecer3   
      73 H73         -0.2489    -1.7299    -4.8304 HAL2          1 ecer3   
      74 H74         -0.2617     0.0648    -4.7419 HAL2          1 ecer3   
      75 C75          1.1378    -0.7636    -6.1767 CTL2          1 ecer3   
      76 H76          1.8264     0.1120    -6.1910 HAL2          1 ecer3   
      77 H77          1.7603    -1.6782    -6.2967 HAL2          1 ecer3   
      78 C78          0.1836    -0.6521    -7.3580 CTL2          1 ecer3   
      79 H79         -0.5197    -1.5141    -7.3503 HAL2          1 ecer3   
      80 H80         -0.4210     0.2776    -7.2514 HAL2          1 ecer3   
      81 C81          0.9295    -0.6278    -8.6886 CTL2          1 ecer3   
      82 H82          1.6651     0.2083    -8.6953 HAL2          1 ecer3   
      83 H83          1.5013    -1.5756    -8.8025 HAL2          1 ecer3   
      84 C84         -0.0268    -0.4625    -9.8616 CTL2          1 ecer3   
      85 H85         -0.7756    -1.2855    -9.8418 HAL2          1 ecer3   
      86 H86         -0.5785     0.4985    -9.7445 HAL2          1 ecer3   
      87 C87          0.7049    -0.4800   -11.1985 CTL2          1 ecer3   
      88 H88          1.4837     0.3157   -11.2108 HAL2          1 ecer3   
      89 H89          1.2250    -1.4571   -11.3116 HAL2          1 ecer3   
      90 C90         -0.2526    -0.2676   -12.3652 CTL2          1 ecer3   
      91 H91         -1.0422    -1.0513   -12.3353 HAL2          1 ecer3   
      92 H92         -0.7537     0.7205   -12.2464 HAL2          1 ecer3   
      93 C93          0.4667    -0.3268   -13.7105 CTL2          1 ecer3   
      94 H94          1.2851     0.4277   -13.7286 HAL2          1 ecer3   
      95 H95          0.9373    -1.3289   -13.8210 HAL2          1 ecer3   
      96 C96         -0.4804    -0.0714   -14.8822 CTL2          1 ecer3   
      97 H97         -1.3090    -0.8133   -14.8470 HAL2          1 ecer3   
      98 H98         -0.9295     0.9419   -14.7672 HAL2          1 ecer3   
      99 C99          0.2321    -0.1736   -16.2339 CTL2          1 ecer3   
     100 H100         1.0863     0.5397   -16.2510 HAL2          1 ecer3   
     101 H101         0.6565    -1.1971   -16.3352 HAL2          1 ecer3   
     102 C102        -0.6945     0.1195   -17.4178 CTL2          1 ecer3   
     103 H103        -1.5544    -0.5864   -17.3826 HAL2          1 ecer3   
     104 H104        -1.1038     1.1497   -17.3019 HAL2          1 ecer3   
     105 C105        -0.0000    -0.0000   -18.7776 CTL3          1 ecer3   
     106 H106        -0.7023     0.2607   -19.5971 HAL3          1 ecer3   
     107 H107         0.8734     0.6846   -18.8349 HAL3          1 ecer3   
     108 H108         0.3699    -1.0347   -18.9394 HAL3          1 ecer3   
@<TRIPOS>BOND
       1       99      100 1
       2       62       63 1
       3       72       74 1
       4        8       11 1
       5       62       66 1
       6       29       30 1
       7       15       14 1
       8       35       36 1
       9       90       91 1
      10       75       78 1
      11       32       33 1
      12       93       96 1
      13       72       75 1
      14       47       49 1
      15       11       14 1
      16       58       62 1
      17       43       41 1
      18       66       67 1
      19       84       85 1
      20       38       39 1
      21       78       81 1
      22       96       97 1
      23       51       52 1
      24       90       92 1
      25       66       68 1
      26       11       12 1
      27        1       51 1
      28       56       57 1
      29        5        8 1
      30       27       26 1
      31       64       65 1
      32       44       46 1
      33       69       71 1
      34       84       86 1
      35       26       29 1
      36       29       32 1
      37       75       77 1
      38       90       93 1
      39        8       10 1
      40        3        1 1
      41       19       17 1
      42       93       95 1
      43       60       61 1
      44       51       58 1
      45       21       20 1
      46       41       44 1
      47       51       53 1
      48       69       72 1
      49       44       47 1
      50       16       14 1
      51       25       23 1
      52       32       34 1
      53       32       35 1
      54       87       88 1
      55       84       87 1
      56      102      103 1
      57       23       20 1
      58       81       82 1
      59       38       40 1
      60       96       98 1
      61       18       17 1
      62        1        2 1
      63      102      104 1
      64       53       54 1
      65       87       90 1
      66       35       37 1
      67       53       55 1
      68      102      105 1
      69       41       42 1
      70        8        9 1
      71       78       79 1
      72       75       76 1
      73       99      102 1
      74       26       28 1
      75       29       31 1
      76       96       99 1
      77       38       41 1
      78       24       23 1
      79       62       64 1
      80       69       70 1
      81      105      106 1
      82       44       45 1
      83        3        4 1
      84        5        7 1
      85       58       59 1
      86       78       80 1
      87       11       13 1
      88        3        5 1
      89       87       89 1
      90       53       56 1
      91       47       50 1
      92       22       20 1
      93       93       94 1
      94      105      107 1
      95       72       73 1
      96       47       48 1
      97       20       17 1
      98       58       60 1
      99       66       69 1
     100       35       38 1
     101       99      101 1
     102      105      108 1
     103       26       23 1
     104        5        6 1
     105       81       84 1
     106       81       83 1
     107       17       14 1
@<TRIPOS>SUBSTRUCTURE
       1 ecer3           1 RESIDUE    0 **** ROOT      0
