@<TRIPOS>MOLECULE
ecer3
108 107 1 0 1
SMALL
USER_CHARGES
@<TRIPOS>CRYSIN
   10.3278    12.2695    28.3309    90.0000    90.0000    90.0000  1  1
@<TRIPOS>ATOM
       1 NH1          0.6785     2.3213     0.0613 NH1           1 ecer3     -0.530000
       2 HN1          0.1895     2.5393     0.9151 HN1           1 ecer3      0.260000
       3 CLN          0.3335     3.0645    -1.0358 CLN           1 ecer3      0.580000
       4 OBL         -0.5995     3.8598    -1.0063 OBL           1 ecer3     -0.530000
       5 CTL2         1.0534     2.7977    -2.3706 CTL2          1 ecer3     -0.260000
       6 HAL2         1.0824     1.6997    -2.4501 HAL2          1 ecer3      0.130000
       7 HAL2         2.0910     3.1806    -2.3002 HAL2          1 ecer3      0.130000
       8 CTL2         0.3409     3.3272    -3.6321 CTL2          1 ecer3     -0.180000
       9 HAL2        -0.7077     2.9504    -3.6637 HAL2          1 ecer3      0.090000
      10 HAL2         0.2959     4.4381    -3.5793 HAL2          1 ecer3      0.090000
      11 CTL2         1.0573     2.9168    -4.9152 CTL2          1 ecer3     -0.180000
      12 HAL2         2.1126     3.2721    -4.8969 HAL2          1 ecer3      0.090000
      13 HAL2         1.0756     1.8103    -4.9796 HAL2          1 ecer3      0.090000
      14 CTL2         0.3591     3.4646    -6.1533 CTL2          1 ecer3     -0.180000
      15 HAL2        -0.6937     3.1006    -6.1758 HAL2          1 ecer3      0.090000
      16 HAL2         0.3386     4.5762    -6.1001 HAL2          1 ecer3      0.090000
      17 CTL2         1.0543     3.0442    -7.4389 CTL2          1 ecer3     -0.180000
      18 HAL2         2.1149     3.3828    -7.4312 HAL2          1 ecer3      0.090000
      19 HAL2         1.0563     1.9375    -7.5020 HAL2          1 ecer3      0.090000
      20 CTL2         0.3482     3.6053    -8.6631 CTL2          1 ecer3     -0.180000
      21 HAL2        -0.7096     3.2562    -8.6758 HAL2          1 ecer3      0.090000
      22 HAL2         0.3438     4.7164    -8.6078 HAL2          1 ecer3      0.090000
      23 CTL2         1.0276     3.1764    -9.9521 CTL2          1 ecer3     -0.180000
      24 HAL2         2.0936     3.4968    -9.9463 HAL2          1 ecer3      0.090000
      25 HAL2         1.0109     2.0697   -10.0102 HAL2          1 ecer3      0.090000
      26 CTL2         0.3273     3.7488   -11.1748 CTL2          1 ecer3     -0.180000
      27 HAL2        -0.7367     3.4197   -11.1802 HAL2          1 ecer3      0.090000
      28 HAL2         0.3439     4.8595   -11.1173 HAL2          1 ecer3      0.090000
      29 CTL2         0.9962     3.3041   -12.4660 CTL2          1 ecer3     -0.180000
      30 HAL2         2.0689     3.6001   -12.4559 HAL2          1 ecer3      0.090000
      31 HAL2         0.9563     2.1976   -12.5159 HAL2          1 ecer3      0.090000
      32 CTL2         0.3118     3.8864   -13.6956 CTL2          1 ecer3     -0.180000
      33 HAL2        -0.7587     3.5808   -13.6945 HAL2          1 ecer3      0.090000
      34 HAL2         0.3518     4.9959   -13.6375 HAL2          1 ecer3      0.090000
      35 CTL2         0.9693     3.4224   -14.9895 CTL2          1 ecer3     -0.180000
      36 HAL2         2.0473     3.6953   -14.9782 HAL2          1 ecer3      0.090000
      37 HAL2         0.9079     2.3167   -15.0264 HAL2          1 ecer3      0.090000
      38 CTL2         0.2964     4.0060   -16.2294 CTL2          1 ecer3     -0.180000
      39 HAL2        -0.7806     3.7248   -16.2155 HAL2          1 ecer3      0.090000
      40 HAL2         0.3618     5.1148   -16.1819 HAL2          1 ecer3      0.090000
      41 CTL2         0.9319     3.5120   -17.5300 CTL2          1 ecer3     -0.180000
      42 HAL2         2.0116     3.7824   -17.5357 HAL2          1 ecer3      0.090000
      43 HAL2         0.8677     2.4056   -17.5366 HAL2          1 ecer3      0.090000
      44 CTL2         0.2435     4.0734   -18.7792 CTL2          1 ecer3     -0.180000
      45 HAL2        -0.8411     3.8220   -18.7435 HAL2          1 ecer3      0.090000
      46 HAL2         0.3368     5.1823   -18.7598 HAL2          1 ecer3      0.090000
      47 CTL3         0.8359     3.5411   -20.0888 CTL3          1 ecer3     -0.300000
      48 HAL3         1.9360     3.7049   -20.0975 HAL3          1 ecer3      0.100000
      49 HAL3         0.6465     2.4494   -20.1675 HAL3          1 ecer3      0.100000
      50 HAL3         0.4019     4.0257   -20.9880 HAL3          1 ecer3      0.100000
      51 CTL1         1.7632     1.2968     0.1726 CTL1          1 ecer3      0.030000
      52 HAL1         2.4564     1.4473    -0.6840 HAL1          1 ecer3      0.120000
      53 CTL2         2.6309     1.6213     1.4387 CTL2          1 ecer3      0.060000
      54 HAL2         1.9834     1.6571     2.3429 HAL2          1 ecer3      0.105000
      55 HAL2         3.3683     0.7971     1.5728 HAL2          1 ecer3      0.105000
      56 OHL          3.3521     2.8480     1.3011 OHL           1 ecer3     -0.560000
      57 HOL          3.7734     3.0248     2.1474 HOL           1 ecer3      0.340000
      58 CTL1         1.0958    -0.1315     0.1545 CTL1          1 ecer3      0.150000
      59 HAL1         0.0000     0.0000     0.0000 HAL1          1 ecer3      0.090000
      60 OHL          1.2343    -0.8127     1.4098 OHL           1 ecer3     -0.560000
      61 HOL          0.8910    -1.7019     1.2904 HOL           1 ecer3      0.340000
      62 CTL1         1.6092    -1.0338    -1.0187 CTL1          1 ecer3      0.160000
      63 HAL1         1.5605    -2.0873    -0.6632 HAL1          1 ecer3      0.090000
      64 OHL          2.9843    -0.8080    -1.3471 OHL           1 ecer3     -0.560000
      65 HOL          3.1167    -1.1652    -2.2297 HOL           1 ecer3      0.310000
      66 CTL2         0.6926    -0.9761    -2.2951 CTL2          1 ecer3     -0.200000
      67 HAL2         0.0949    -1.9135    -2.3154 HAL2          1 ecer3      0.100000
      68 HAL2        -0.0447    -0.1439    -2.2303 HAL2          1 ecer3      0.100000
      69 CTL2         1.3826    -0.8702    -3.6721 CTL2          1 ecer3     -0.180000
      70 HAL2         2.0099     0.0505    -3.7141 HAL2          1 ecer3      0.090000
      71 HAL2         2.0551    -1.7450    -3.8227 HAL2          1 ecer3      0.090000
      72 CTL2         0.4006    -0.8262    -4.8395 CTL2          1 ecer3     -0.180000
      73 HAL2        -0.2489    -1.7299    -4.8304 HAL2          1 ecer3      0.090000
      74 HAL2        -0.2617     0.0648    -4.7419 HAL2          1 ecer3      0.090000
      75 CTL2         1.1378    -0.7636    -6.1767 CTL2          1 ecer3     -0.180000
      76 HAL2         1.8264     0.1120    -6.1910 HAL2          1 ecer3      0.090000
      77 HAL2         1.7603    -1.6782    -6.2967 HAL2          1 ecer3      0.090000
      78 CTL2         0.1836    -0.6521    -7.3580 CTL2          1 ecer3     -0.180000
      79 HAL2        -0.5197    -1.5141    -7.3503 HAL2          1 ecer3      0.090000
      80 HAL2        -0.4210     0.2776    -7.2514 HAL2          1 ecer3      0.090000
      81 CTL2         0.9295    -0.6278    -8.6886 CTL2          1 ecer3     -0.180000
      82 HAL2         1.6651     0.2083    -8.6953 HAL2          1 ecer3      0.090000
      83 HAL2         1.5013    -1.5756    -8.8025 HAL2          1 ecer3      0.090000
      84 CTL2        -0.0268    -0.4625    -9.8616 CTL2          1 ecer3     -0.180000
      85 HAL2        -0.7756    -1.2855    -9.8418 HAL2          1 ecer3      0.090000
      86 HAL2        -0.5785     0.4985    -9.7445 HAL2          1 ecer3      0.090000
      87 CTL2         0.7049    -0.4800   -11.1985 CTL2          1 ecer3     -0.180000
      88 HAL2         1.4837     0.3157   -11.2108 HAL2          1 ecer3      0.090000
      89 HAL2         1.2250    -1.4571   -11.3116 HAL2          1 ecer3      0.090000
      90 CTL2        -0.2526    -0.2676   -12.3652 CTL2          1 ecer3     -0.180000
      91 HAL2        -1.0422    -1.0513   -12.3353 HAL2          1 ecer3      0.090000
      92 HAL2        -0.7537     0.7205   -12.2464 HAL2          1 ecer3      0.090000
      93 CTL2         0.4667    -0.3268   -13.7105 CTL2          1 ecer3     -0.180000
      94 HAL2         1.2851     0.4277   -13.7286 HAL2          1 ecer3      0.090000
      95 HAL2         0.9373    -1.3289   -13.8210 HAL2          1 ecer3      0.090000
      96 CTL2        -0.4804    -0.0714   -14.8822 CTL2          1 ecer3     -0.180000
      97 HAL2        -1.3090    -0.8133   -14.8470 HAL2          1 ecer3      0.090000
      98 HAL2        -0.9295     0.9419   -14.7672 HAL2          1 ecer3      0.090000
      99 CTL2         0.2321    -0.1736   -16.2339 CTL2          1 ecer3     -0.180000
     100 HAL2         1.0863     0.5397   -16.2510 HAL2          1 ecer3      0.090000
     101 HAL2         0.6565    -1.1971   -16.3352 HAL2          1 ecer3      0.090000
     102 CTL2        -0.6945     0.1195   -17.4178 CTL2          1 ecer3     -0.180000
     103 HAL2        -1.5544    -0.5864   -17.3826 HAL2          1 ecer3      0.090000
     104 HAL2        -1.1038     1.1497   -17.3019 HAL2          1 ecer3      0.090000
     105 CTL3        -0.0000    -0.0000   -18.7776 CTL3          1 ecer3     -0.300000
     106 HAL3        -0.7023     0.2607   -19.5971 HAL3          1 ecer3      0.100000
     107 HAL3         0.8734     0.6846   -18.8349 HAL3          1 ecer3      0.100000
     108 HAL3         0.3699    -1.0347   -18.9394 HAL3          1 ecer3      0.100000
@<TRIPOS>BOND
       1       20       21 1
       2       81       83 1
       3       51        1 1
       4       73       72 1
       5       84       87 1
       6       99      100 1
       7       17       14 1
       8       66       69 1
       9      102      105 1
      10       81       84 1
      11       23       25 1
      12       26       27 1
      13       29       30 1
      14       14       15 1
      15       32       34 1
      16       56       57 1
      17       69       70 1
      18       87       90 1
      19       93       94 1
      20      105      106 1
      21       23       26 1
      22       35       37 1
      23       47       49 1
      24       44       46 1
      25       99      101 1
      26       17       18 1
      27       74       72 1
      28       78       80 1
      29       41       44 1
      30       56       53 1
      31       26       29 1
      32       93       95 1
      33       84       86 1
      34       47       50 1
      35       99      102 1
      36       44       47 1
      37        2        1 1
      38      102      104 1
      39       66       68 1
      40       64       65 1
      41       78       81 1
      42       29       31 1
      43       75       72 1
      44       29       32 1
      45       62       66 1
      46       35       38 1
      47       26       28 1
      48       96       97 1
      49       93       96 1
      50       38       41 1
      51       75       76 1
      52       59       58 1
      53       58       62 1
      54       17       19 1
      55       90       91 1
      56        8       11 1
      57      105      107 1
      58       69       71 1
      59        5        6 1
      60       60       61 1
      61       75       77 1
      62        8        9 1
      63       96       99 1
      64       75       78 1
      65       20       23 1
      66       32       33 1
      67       87       88 1
      68       84       85 1
      69       62       63 1
      70      105      108 1
      71       69       72 1
      72       78       79 1
      73       51       58 1
      74       44       45 1
      75       20       22 1
      76       62       64 1
      77       41       42 1
      78       38       40 1
      79       87       89 1
      80       11       12 1
      81        5        7 1
      82       38       39 1
      83       96       98 1
      84       11       13 1
      85       11       14 1
      86        3        4 1
      87       14       16 1
      88       51       53 1
      89       55       53 1
      90      102      103 1
      91       66       67 1
      92       81       82 1
      93        8       10 1
      94       32       35 1
      95       41       43 1
      96       47       48 1
      97       60       58 1
      98       23       24 1
      99       51       52 1
     100        3        5 1
     101       35       36 1
     102       17       20 1
     103       90       93 1
     104       53       54 1
     105        5        8 1
     106        3        1 1
     107       90       92 1
@<TRIPOS>SUBSTRUCTURE
       1 ecer3           1 RESIDUE    0 **** ROOT      0
