@<TRIPOS>MOLECULE
ecer3
108 107 1 0 1
SMALL
NO_CHARGES
@<TRIPOS>CRYSIN
   10.3278    12.2695    28.3309    90.0000    90.0000    90.0000  1  1
@<TRIPOS>ATOM
       1 NH1          0.6785     2.3213     0.0613 NH1           1 ecer3   
       2 HN1          0.1895     2.5393     0.9151 HN1           1 ecer3   
       3 CLN          0.3335     3.0645    -1.0358 CLN           1 ecer3   
       4 OBL         -0.5995     3.8598    -1.0063 OBL           1 ecer3   
       5 CTL2         1.0534     2.7977    -2.3706 CTL2          1 ecer3   
       6 HAL2         1.0824     1.6997    -2.4501 HAL2          1 ecer3   
       7 HAL2         2.0910     3.1806    -2.3002 HAL2          1 ecer3   
       8 CTL2         0.3409     3.3272    -3.6321 CTL2          1 ecer3   
       9 HAL2        -0.7077     2.9504    -3.6637 HAL2          1 ecer3   
      10 HAL2         0.2959     4.4381    -3.5793 HAL2          1 ecer3   
      11 CTL2         1.0573     2.9168    -4.9152 CTL2          1 ecer3   
      12 HAL2         2.1126     3.2721    -4.8969 HAL2          1 ecer3   
      13 HAL2         1.0756     1.8103    -4.9796 HAL2          1 ecer3   
      14 CTL2         0.3591     3.4646    -6.1533 CTL2          1 ecer3   
      15 HAL2        -0.6937     3.1006    -6.1758 HAL2          1 ecer3   
      16 HAL2         0.3386     4.5762    -6.1001 HAL2          1 ecer3   
      17 CTL2         1.0543     3.0442    -7.4389 CTL2          1 ecer3   
      18 HAL2         2.1149     3.3828    -7.4312 HAL2          1 ecer3   
      19 HAL2         1.0563     1.9375    -7.5020 HAL2          1 ecer3   
      20 CTL2         0.3482     3.6053    -8.6631 CTL2          1 ecer3   
      21 HAL2        -0.7096     3.2562    -8.6758 HAL2          1 ecer3   
      22 HAL2         0.3438     4.7164    -8.6078 HAL2          1 ecer3   
      23 CTL2         1.0276     3.1764    -9.9521 CTL2          1 ecer3   
      24 HAL2         2.0936     3.4968    -9.9463 HAL2          1 ecer3   
      25 HAL2         1.0109     2.0697   -10.0102 HAL2          1 ecer3   
      26 CTL2         0.3273     3.7488   -11.1748 CTL2          1 ecer3   
      27 HAL2        -0.7367     3.4197   -11.1802 HAL2          1 ecer3   
      28 HAL2         0.3439     4.8595   -11.1173 HAL2          1 ecer3   
      29 CTL2         0.9962     3.3041   -12.4660 CTL2          1 ecer3   
      30 HAL2         2.0689     3.6001   -12.4559 HAL2          1 ecer3   
      31 HAL2         0.9563     2.1976   -12.5159 HAL2          1 ecer3   
      32 CTL2         0.3118     3.8864   -13.6956 CTL2          1 ecer3   
      33 HAL2        -0.7587     3.5808   -13.6945 HAL2          1 ecer3   
      34 HAL2         0.3518     4.9959   -13.6375 HAL2          1 ecer3   
      35 CTL2         0.9693     3.4224   -14.9895 CTL2          1 ecer3   
      36 HAL2         2.0473     3.6953   -14.9782 HAL2          1 ecer3   
      37 HAL2         0.9079     2.3167   -15.0264 HAL2          1 ecer3   
      38 CTL2         0.2964     4.0060   -16.2294 CTL2          1 ecer3   
      39 HAL2        -0.7806     3.7248   -16.2155 HAL2          1 ecer3   
      40 HAL2         0.3618     5.1148   -16.1819 HAL2          1 ecer3   
      41 CTL2         0.9319     3.5120   -17.5300 CTL2          1 ecer3   
      42 HAL2         2.0116     3.7824   -17.5357 HAL2          1 ecer3   
      43 HAL2         0.8677     2.4056   -17.5366 HAL2          1 ecer3   
      44 CTL2         0.2435     4.0734   -18.7792 CTL2          1 ecer3   
      45 HAL2        -0.8411     3.8220   -18.7435 HAL2          1 ecer3   
      46 HAL2         0.3368     5.1823   -18.7598 HAL2          1 ecer3   
      47 CTL3         0.8359     3.5411   -20.0888 CTL3          1 ecer3   
      48 HAL3         1.9360     3.7049   -20.0975 HAL3          1 ecer3   
      49 HAL3         0.6465     2.4494   -20.1675 HAL3          1 ecer3   
      50 HAL3         0.4019     4.0257   -20.9880 HAL3          1 ecer3   
      51 CTL1         1.7632     1.2968     0.1726 CTL1          1 ecer3   
      52 HAL1         2.4564     1.4473    -0.6840 HAL1          1 ecer3   
      53 CTL2         2.6309     1.6213     1.4387 CTL2          1 ecer3   
      54 HAL2         1.9834     1.6571     2.3429 HAL2          1 ecer3   
      55 HAL2         3.3683     0.7971     1.5728 HAL2          1 ecer3   
      56 OHL          3.3521     2.8480     1.3011 OHL           1 ecer3   
      57 HOL          3.7734     3.0248     2.1474 HOL           1 ecer3   
      58 CTL1         1.0958    -0.1315     0.1545 CTL1          1 ecer3   
      59 HAL1         0.0000     0.0000     0.0000 HAL1          1 ecer3   
      60 OHL          1.2343    -0.8127     1.4098 OHL           1 ecer3   
      61 HOL          0.8910    -1.7019     1.2904 HOL           1 ecer3   
      62 CTL1         1.6092    -1.0338    -1.0187 CTL1          1 ecer3   
      63 HAL1         1.5605    -2.0873    -0.6632 HAL1          1 ecer3   
      64 OHL          2.9843    -0.8080    -1.3471 OHL           1 ecer3   
      65 HOL          3.1167    -1.1652    -2.2297 HOL           1 ecer3   
      66 CTL2         0.6926    -0.9761    -2.2951 CTL2          1 ecer3   
      67 HAL2         0.0949    -1.9135    -2.3154 HAL2          1 ecer3   
      68 HAL2        -0.0447    -0.1439    -2.2303 HAL2          1 ecer3   
      69 CTL2         1.3826    -0.8702    -3.6721 CTL2          1 ecer3   
      70 HAL2         2.0099     0.0505    -3.7141 HAL2          1 ecer3   
      71 HAL2         2.0551    -1.7450    -3.8227 HAL2          1 ecer3   
      72 CTL2         0.4006    -0.8262    -4.8395 CTL2          1 ecer3   
      73 HAL2        -0.2489    -1.7299    -4.8304 HAL2          1 ecer3   
      74 HAL2        -0.2617     0.0648    -4.7419 HAL2          1 ecer3   
      75 CTL2         1.1378    -0.7636    -6.1767 CTL2          1 ecer3   
      76 HAL2         1.8264     0.1120    -6.1910 HAL2          1 ecer3   
      77 HAL2         1.7603    -1.6782    -6.2967 HAL2          1 ecer3   
      78 CTL2         0.1836    -0.6521    -7.3580 CTL2          1 ecer3   
      79 HAL2        -0.5197    -1.5141    -7.3503 HAL2          1 ecer3   
      80 HAL2        -0.4210     0.2776    -7.2514 HAL2          1 ecer3   
      81 CTL2         0.9295    -0.6278    -8.6886 CTL2          1 ecer3   
      82 HAL2         1.6651     0.2083    -8.6953 HAL2          1 ecer3   
      83 HAL2         1.5013    -1.5756    -8.8025 HAL2          1 ecer3   
      84 CTL2        -0.0268    -0.4625    -9.8616 CTL2          1 ecer3   
      85 HAL2        -0.7756    -1.2855    -9.8418 HAL2          1 ecer3   
      86 HAL2        -0.5785     0.4985    -9.7445 HAL2          1 ecer3   
      87 CTL2         0.7049    -0.4800   -11.1985 CTL2          1 ecer3   
      88 HAL2         1.4837     0.3157   -11.2108 HAL2          1 ecer3   
      89 HAL2         1.2250    -1.4571   -11.3116 HAL2          1 ecer3   
      90 CTL2        -0.2526    -0.2676   -12.3652 CTL2          1 ecer3   
      91 HAL2        -1.0422    -1.0513   -12.3353 HAL2          1 ecer3   
      92 HAL2        -0.7537     0.7205   -12.2464 HAL2          1 ecer3   
      93 CTL2         0.4667    -0.3268   -13.7105 CTL2          1 ecer3   
      94 HAL2         1.2851     0.4277   -13.7286 HAL2          1 ecer3   
      95 HAL2         0.9373    -1.3289   -13.8210 HAL2          1 ecer3   
      96 CTL2        -0.4804    -0.0714   -14.8822 CTL2          1 ecer3   
      97 HAL2        -1.3090    -0.8133   -14.8470 HAL2          1 ecer3   
      98 HAL2        -0.9295     0.9419   -14.7672 HAL2          1 ecer3   
      99 CTL2         0.2321    -0.1736   -16.2339 CTL2          1 ecer3   
     100 HAL2         1.0863     0.5397   -16.2510 HAL2          1 ecer3   
     101 HAL2         0.6565    -1.1971   -16.3352 HAL2          1 ecer3   
     102 CTL2        -0.6945     0.1195   -17.4178 CTL2          1 ecer3   
     103 HAL2        -1.5544    -0.5864   -17.3826 HAL2          1 ecer3   
     104 HAL2        -1.1038     1.1497   -17.3019 HAL2          1 ecer3   
     105 CTL3        -0.0000    -0.0000   -18.7776 CTL3          1 ecer3   
     106 HAL3        -0.7023     0.2607   -19.5971 HAL3          1 ecer3   
     107 HAL3         0.8734     0.6846   -18.8349 HAL3          1 ecer3   
     108 HAL3         0.3699    -1.0347   -18.9394 HAL3          1 ecer3   
@<TRIPOS>BOND
       1        1        3 1
       2       14       17 1
       3       20       23 1
       4       60       58 1
       5       35       38 1
       6       62       64 1
       7       99      100 1
       8        3        5 1
       9       29       31 1
      10       87       88 1
      11       14       15 1
      12       44       46 1
      13        5        7 1
      14       17       18 1
      15       41       43 1
      16       53       56 1
      17       26       28 1
      18      105      107 1
      19       69       71 1
      20       37       35 1
      21       17       20 1
      22       29       30 1
      23       51       53 1
      24       44       47 1
      25       41       44 1
      26       75       76 1
      27       87       90 1
      28       32       33 1
      29      102      104 1
      30       66       68 1
      31       72       75 1
      32       26       29 1
      33       51       58 1
      34       60       61 1
      35      105      106 1
      36       69       70 1
      37       62       66 1
      38        8       11 1
      39        3        4 1
      40       11       14 1
      41       53       55 1
      42       90       91 1
      43       56       57 1
      44       23       26 1
      45       81       84 1
      46       78       79 1
      47       17       19 1
      48       34       32 1
      49       81       82 1
      50       11       13 1
      51      102      105 1
      52       66       69 1
      53        1        2 1
      54       51       52 1
      55       23       24 1
      56       40       38 1
      57       93       94 1
      58       47       48 1
      59       36       35 1
      60       99      102 1
      61       69       72 1
      62      105      108 1
      63       93       96 1
      64       47       50 1
      65       96       97 1
      66       75       78 1
      67       41       42 1
      68       35       32 1
      69       84       85 1
      70       96       99 1
      71       23       25 1
      72       78       80 1
      73       53       54 1
      74       84       86 1
      75       41       38 1
      76       84       87 1
      77       87       89 1
      78       96       98 1
      79       75       77 1
      80       29       32 1
      81       64       65 1
      82        8        9 1
      83       90       92 1
      84        5        6 1
      85       58       62 1
      86       81       83 1
      87       20       21 1
      88       99      101 1
      89       44       45 1
      90       66       67 1
      91      102      103 1
      92       39       38 1
      93       72       73 1
      94       62       63 1
      95       93       95 1
      96       47       49 1
      97       26       27 1
      98       72       74 1
      99       14       16 1
     100        8       10 1
     101       90       93 1
     102        5        8 1
     103       59       58 1
     104       20       22 1
     105       11       12 1
     106       78       81 1
     107        1       51 1
@<TRIPOS>SUBSTRUCTURE
       1 ecer3           1 RESIDUE    0 **** ROOT      0
