@<TRIPOS>MOLECULE
ecer3
108 107 1 0 1
SMALL
NO_CHARGES
@<TRIPOS>CRYSIN
   15.6764    12.1395    27.9535    90.0000    90.0000    90.0000  1  1
@<TRIPOS>ATOM
       1 NH1         -3.7232    -2.8672    19.6331 NH1           1 ecer3   
       2 HN1         -3.7338    -3.5177    20.4027 HN1           1 ecer3   
       3 CLN         -3.7416    -3.4183    18.3797 CLN           1 ecer3   
       4 OBL         -3.6515    -4.6293    18.2083 OBL           1 ecer3   
       5 CTL2        -3.7451    -2.4830    17.1564 CTL2          1 ecer3   
       6 HAL2        -2.9928    -1.7158    17.3976 HAL2          1 ecer3   
       7 HAL2        -4.7393    -1.9997    17.0787 HAL2          1 ecer3   
       8 CTL2        -3.3254    -3.1286    15.8199 CTL2          1 ecer3   
       9 HAL2        -2.3368    -3.6309    15.9334 HAL2          1 ecer3   
      10 HAL2        -4.0694    -3.9112    15.5500 HAL2          1 ecer3   
      11 CTL2        -3.2399    -2.1092    14.6878 CTL2          1 ecer3   
      12 HAL2        -4.2153    -1.5854    14.5676 HAL2          1 ecer3   
      13 HAL2        -2.4779    -1.3468    14.9461 HAL2          1 ecer3   
      14 CTL2        -2.8481    -2.7608    13.3679 CTL2          1 ecer3   
      15 HAL2        -1.8674    -3.2762    13.4865 HAL2          1 ecer3   
      16 HAL2        -3.6096    -3.5262    13.0973 HAL2          1 ecer3   
      17 CTL2        -2.7406    -1.7496    12.2369 CTL2          1 ecer3   
      18 HAL2        -3.7057    -1.2090    12.1113 HAL2          1 ecer3   
      19 HAL2        -1.9675    -0.9991    12.4972 HAL2          1 ecer3   
      20 CTL2        -2.3556    -2.4182    10.9267 CTL2          1 ecer3   
      21 HAL2        -1.3840    -2.9490    11.0505 HAL2          1 ecer3   
      22 HAL2        -3.1283    -3.1721    10.6578 HAL2          1 ecer3   
      23 CTL2        -2.2306    -1.4123     9.7956 CTL2          1 ecer3   
      24 HAL2        -3.1864    -0.8552     9.6732 HAL2          1 ecer3   
      25 HAL2        -1.4457    -0.6761    10.0611 HAL2          1 ecer3   
      26 CTL2        -1.8577    -2.0845     8.4833 CTL2          1 ecer3   
      27 HAL2        -0.8973    -2.6343     8.6085 HAL2          1 ecer3   
      28 HAL2        -2.6451    -2.8233     8.2159 HAL2          1 ecer3   
      29 CTL2        -1.7141    -1.0751     7.3550 CTL2          1 ecer3   
      30 HAL2        -2.6588    -0.4978     7.2435 HAL2          1 ecer3   
      31 HAL2        -0.9153    -0.3574     7.6291 HAL2          1 ecer3   
      32 CTL2        -1.3574    -1.7413     6.0327 CTL2          1 ecer3   
      33 HAL2        -0.4101    -2.3127     6.1575 HAL2          1 ecer3   
      34 HAL2        -2.1602    -2.4624     5.7654 HAL2          1 ecer3   
      35 CTL2        -1.1920    -0.7269     4.9077 CTL2          1 ecer3   
      36 HAL2        -2.1249    -0.1304     4.8039 HAL2          1 ecer3   
      37 HAL2        -0.3819    -0.0276     5.1948 HAL2          1 ecer3   
      38 CTL2        -0.8417    -1.3836     3.5748 CTL2          1 ecer3   
      39 HAL2         0.0903    -1.9783     3.7051 HAL2          1 ecer3   
      40 HAL2        -1.6591    -2.0840     3.2969 HAL2          1 ecer3   
      41 CTL2        -0.6391    -0.3640     2.4529 CTL2          1 ecer3   
      42 HAL2        -1.5674     0.2383     2.3335 HAL2          1 ecer3   
      43 HAL2         0.1664     0.3283     2.7692 HAL2          1 ecer3   
      44 CTL2        -0.2607    -1.0156     1.1180 CTL2          1 ecer3   
      45 HAL2         0.6511    -1.6395     1.2608 HAL2          1 ecer3   
      46 HAL2        -1.0909    -1.6909     0.8123 HAL2          1 ecer3   
      47 CTL3         0.0000     0.0000     0.0000 CTL3          1 ecer3   
      48 HAL3        -0.8685     0.6887    -0.0921 HAL3          1 ecer3   
      49 HAL3         0.8984     0.6047     0.2473 HAL3          1 ecer3   
      50 HAL3         0.1747    -0.4781    -0.9862 HAL3          1 ecer3   
      51 CTL1        -3.7929    -1.4186    20.0006 CTL1          1 ecer3   
      52 HAL1        -4.1754    -0.8655    19.1147 HAL1          1 ecer3   
      53 CTL2        -4.9071    -1.2308    21.0890 CTL2          1 ecer3   
      54 HAL2        -4.6951    -1.8835    21.9650 HAL2          1 ecer3   
      55 HAL2        -4.8804    -0.1712    21.4318 HAL2          1 ecer3   
      56 OHL         -6.2145    -1.5024    20.5782 OHL           1 ecer3   
      57 HOL         -6.8223    -1.4650    21.3226 HOL           1 ecer3   
      58 CTL1        -2.3482    -0.9461    20.4191 CTL1          1 ecer3   
      59 HAL1        -1.6476    -1.7997    20.2693 HAL1          1 ecer3   
      60 OHL         -2.2667    -0.6139    21.8126 OHL           1 ecer3   
      61 HOL         -1.3920    -0.2483    21.9673 HOL           1 ecer3   
      62 CTL1        -1.8105     0.2348    19.5414 CTL1          1 ecer3   
      63 HAL1        -1.1360     0.8391    20.1882 HAL1          1 ecer3   
      64 OHL         -2.8371     1.1379    19.1165 OHL           1 ecer3   
      65 HOL         -2.4785     1.6281    18.3714 HOL           1 ecer3   
      66 CTL2        -0.9227    -0.2413    18.3339 CTL2          1 ecer3   
      67 HAL2         0.1375    -0.0454    18.6058 HAL2          1 ecer3   
      68 HAL2        -1.0012    -1.3414    18.1791 HAL2          1 ecer3   
      69 CTL2        -1.1519     0.4314    16.9633 CTL2          1 ecer3   
      70 HAL2        -2.2065     0.2790    16.6358 HAL2          1 ecer3   
      71 HAL2        -0.9797     1.5281    17.0506 HAL2          1 ecer3   
      72 CTL2        -0.2349    -0.1023    15.8663 CTL2          1 ecer3   
      73 HAL2         0.8311     0.0285    16.1583 HAL2          1 ecer3   
      74 HAL2        -0.4129    -1.1931    15.7233 HAL2          1 ecer3   
      75 CTL2        -0.4760     0.6264    14.5448 CTL2          1 ecer3   
      76 HAL2        -1.5484     0.5436    14.2548 HAL2          1 ecer3   
      77 HAL2        -0.2491     1.7081    14.6744 HAL2          1 ecer3   
      78 CTL2         0.3787     0.0704    13.4139 CTL2          1 ecer3   
      79 HAL2         1.4534     0.1346    13.6942 HAL2          1 ecer3   
      80 HAL2         0.1323    -1.0061    13.2665 HAL2          1 ecer3   
      81 CTL2         0.1564     0.8296    12.1096 CTL2          1 ecer3   
      82 HAL2        -0.9231     0.8058    11.8367 HAL2          1 ecer3   
      83 HAL2         0.4395     1.8957    12.2564 HAL2          1 ecer3   
      84 CTL2         0.9737     0.2348    10.9712 CTL2          1 ecer3   
      85 HAL2         2.0501     0.2379    11.2533 HAL2          1 ecer3   
      86 HAL2         0.6668    -0.8262    10.8230 HAL2          1 ecer3   
      87 CTL2         0.7912     1.0127     9.6733 CTL2          1 ecer3   
      88 HAL2        -0.2889     1.0481     9.4053 HAL2          1 ecer3   
      89 HAL2         1.1300     2.0608     9.8310 HAL2          1 ecer3   
      90 CTL2         1.5755     0.3845     8.5274 CTL2          1 ecer3   
      91 HAL2         2.6508     0.3301     8.8091 HAL2          1 ecer3   
      92 HAL2         1.2148    -0.6582     8.3712 HAL2          1 ecer3   
      93 CTL2         1.4323     1.1827     7.2340 CTL2          1 ecer3   
      94 HAL2         0.3545     1.2754     6.9711 HAL2          1 ecer3   
      95 HAL2         1.8217     2.2112     7.4031 HAL2          1 ecer3   
      96 CTL2         2.1810     0.5342     6.0704 CTL2          1 ecer3   
      97 HAL2         3.2533     0.4229     6.3463 HAL2          1 ecer3   
      98 HAL2         1.7681    -0.4869     5.9016 HAL2          1 ecer3   
      99 CTL2         2.0735     1.3574     4.7836 CTL2          1 ecer3   
     100 HAL2         0.9991     1.5032     4.5324 HAL2          1 ecer3   
     101 HAL2         2.5073     2.3651     4.9692 HAL2          1 ecer3   
     102 CTL2         2.7851     0.7008     3.5967 CTL2          1 ecer3   
     103 HAL2         3.8541     0.5427     3.8633 HAL2          1 ecer3   
     104 HAL2         2.3328    -0.3030     3.4226 HAL2          1 ecer3   
     105 CTL3         2.7036     1.5239     2.3078 CTL3          1 ecer3   
     106 HAL3         3.1985     0.9867     1.4714 HAL3          1 ecer3   
     107 HAL3         1.6450     1.7098     2.0258 HAL3          1 ecer3   
     108 HAL3         3.1967     2.5102     2.4406 HAL3          1 ecer3   
@<TRIPOS>BOND
       1       29       32 1
       2       53       55 1
       3       72       75 1
       4       44       45 1
       5       53       54 1
       6       47       50 1
       7       82       81 1
       8       81       83 1
       9       87       84 1
      10        1        2 1
      11       23       26 1
      12       23       24 1
      13       72       73 1
      14       38       39 1
      15       32       35 1
      16       93       95 1
      17       90       92 1
      18       84       81 1
      19       58       62 1
      20       28       26 1
      21       87       89 1
      22       75       76 1
      23       44       46 1
      24       58       59 1
      25        5        7 1
      26       99      100 1
      27       75       78 1
      28      102      103 1
      29      105      106 1
      30       53       56 1
      31       51       52 1
      32       99      102 1
      33       38       40 1
      34       90       93 1
      35       87       90 1
      36       44       47 1
      37       47       49 1
      38       11       12 1
      39        8       11 1
      40        5        6 1
      41       66       69 1
      42       60       61 1
      43        1        3 1
      44       41       42 1
      45       38       41 1
      46       96       97 1
      47       69       72 1
      48       56       57 1
      49       58       60 1
      50       35       36 1
      51       17       20 1
      52       14       15 1
      53       75       77 1
      54       26       27 1
      55      102      104 1
      56       17       18 1
      57        3        5 1
      58       69       71 1
      59       41       44 1
      60      102      105 1
      61       32       33 1
      62       99      101 1
      63      105      108 1
      64       93       94 1
      65       96       98 1
      66        5        8 1
      67       93       96 1
      68       62       63 1
      69       85       84 1
      70       11       14 1
      71       87       88 1
      72       32       34 1
      73       20       21 1
      74       86       84 1
      75       29       30 1
      76       14       16 1
      77       41       43 1
      78       20       22 1
      79       20       23 1
      80       23       25 1
      81       62       64 1
      82       11       13 1
      83       66       67 1
      84       47       48 1
      85       17       19 1
      86       78       81 1
      87       51       53 1
      88       51       58 1
      89       78       79 1
      90       90       91 1
      91       62       66 1
      92        8        9 1
      93       64       65 1
      94      105      107 1
      95       29       31 1
      96        8       10 1
      97       72       74 1
      98       29       26 1
      99       66       68 1
     100       35       38 1
     101       78       80 1
     102        3        4 1
     103       96       99 1
     104       69       70 1
     105       14       17 1
     106       35       37 1
     107       51        1 1
@<TRIPOS>SUBSTRUCTURE
       1 ecer3           1 RESIDUE    0 **** ROOT      0
