@<TRIPOS>MOLECULE
ecer2
105 104 1 0 1
SMALL
NO_CHARGES
@<TRIPOS>CRYSIN
    8.9017    14.4304    49.0043    90.0000    90.0000    90.0000  1  1
@<TRIPOS>ATOM
       1 NH1         -0.8750    -0.4173   -20.9326 NH1           1 ecer2   
       2 HN1         -1.3988     0.4365   -20.8058 HN1           1 ecer2   
       3 CLN         -0.3658    -1.0417   -19.8043 CLN           1 ecer2   
       4 OBL          0.2198    -2.1221   -19.8437 OBL           1 ecer2   
       5 CTL2        -0.4403    -0.2837   -18.4498 CTL2          1 ecer2   
       6 HAL2        -1.1353     0.5732   -18.5502 HAL2          1 ecer2   
       7 HAL2         0.5616     0.1340   -18.2470 HAL2          1 ecer2   
       8 CTL2        -0.8535    -1.1180   -17.1629 CTL2          1 ecer2   
       9 HAL2        -1.9626    -1.2186   -17.1443 HAL2          1 ecer2   
      10 HAL2        -0.4369    -2.1510   -17.2341 HAL2          1 ecer2   
      11 CTL2        -0.3560    -0.5281   -15.7893 CTL2          1 ecer2   
      12 HAL2         0.7416    -0.7049   -15.7454 HAL2          1 ecer2   
      13 HAL2        -0.5111     0.5730   -15.7860 HAL2          1 ecer2   
      14 CTL2        -0.9955    -1.0819   -14.4619 CTL2          1 ecer2   
      15 HAL2        -2.0280    -0.6747   -14.3932 HAL2          1 ecer2   
      16 HAL2        -1.0801    -2.1895   -14.5247 HAL2          1 ecer2   
      17 CTL2        -0.2248    -0.7437   -13.1319 CTL2          1 ecer2   
      18 HAL2         0.6888    -1.3804   -13.1035 HAL2          1 ecer2   
      19 HAL2         0.1125     0.3159   -13.1689 HAL2          1 ecer2   
      20 CTL2        -1.0059    -0.9252   -11.7815 CTL2          1 ecer2   
      21 HAL2        -1.8027    -0.1497   -11.7501 HAL2          1 ecer2   
      22 HAL2        -1.5066    -1.9176   -11.7778 HAL2          1 ecer2   
      23 CTL2        -0.1518    -0.8185   -10.4693 CTL2          1 ecer2   
      24 HAL2         0.5039    -1.7160   -10.4125 HAL2          1 ecer2   
      25 HAL2         0.5117     0.0715   -10.5400 HAL2          1 ecer2   
      26 CTL2        -0.9525    -0.6955    -9.1304 CTL2          1 ecer2   
      27 HAL2        -1.4976     0.2741    -9.1473 HAL2          1 ecer2   
      28 HAL2        -1.7142    -1.5042    -9.0804 HAL2          1 ecer2   
      29 CTL2        -0.1052    -0.7613    -7.8159 CTL2          1 ecer2   
      30 HAL2         0.3174    -1.7866    -7.7225 HAL2          1 ecer2   
      31 HAL2         0.7497    -0.0546    -7.8986 HAL2          1 ecer2   
      32 CTL2        -0.8750    -0.4173    -6.5037 CTL2          1 ecer2   
      33 HAL2        -1.2121     0.6407    -6.5689 HAL2          1 ecer2   
      34 HAL2        -1.7829    -1.0548    -6.4339 HAL2          1 ecer2   
      35 CTL2        -0.0684    -0.5907    -5.1832 CTL2          1 ecer2   
      36 HAL2         0.1791    -1.6687    -5.0546 HAL2          1 ecer2   
      37 HAL2         0.8926    -0.0345    -5.2642 HAL2          1 ecer2   
      38 CTL2        -0.7990    -0.0940    -3.9014 CTL2          1 ecer2   
      39 HAL2        -0.9912     0.9964    -4.0100 HAL2          1 ecer2   
      40 HAL2        -1.7863    -0.6019    -3.8254 HAL2          1 ecer2   
      41 CTL2        -0.0322    -0.3274    -2.5741 CTL2          1 ecer2   
      42 HAL2         0.1034    -1.4192    -2.4242 HAL2          1 ecer2   
      43 HAL2         0.9766     0.1315    -2.6489 HAL2          1 ecer2   
      44 CTL2        -0.7371     0.2582    -1.3276 CTL2          1 ecer2   
      45 HAL2        -0.8516     1.3609    -1.4610 HAL2          1 ecer2   
      46 HAL2        -1.7648    -0.1710    -1.2511 HAL2          1 ecer2   
      47 CTL3         0.0000     0.0000     0.0000 CTL3          1 ecer2   
      48 HAL3         0.0810    -1.0880     0.2037 HAL3          1 ecer2   
      49 HAL3         1.0209     0.4357    -0.0200 HAL3          1 ecer2   
      50 HAL3        -0.5494     0.4631     0.8483 HAL3          1 ecer2   
      51 CTL1        -0.6652    -0.8476   -22.3738 CTL1          1 ecer2   
      52 HAL1         0.4393    -0.9038   -22.5290 HAL1          1 ecer2   
      53 CTL2        -1.2562    -2.2975   -22.5736 CTL2          1 ecer2   
      54 HAL2        -1.9800    -2.5519   -21.7710 HAL2          1 ecer2   
      55 HAL2        -1.7917    -2.3923   -23.5421 HAL2          1 ecer2   
      56 OHL         -0.2077    -3.2634   -22.5491 OHL           1 ecer2   
      57 HOL          0.1737    -3.2136   -21.6591 HOL           1 ecer2   
      58 CTL1        -1.2476     0.2561   -23.3393 CTL1          1 ecer2   
      59 HAL1        -0.9927     1.2565   -22.9218 HAL1          1 ecer2   
      60 OHL         -2.6730     0.1868   -23.3995 OHL           1 ecer2   
      61 HOL         -2.8808    -0.5436   -23.9882 HOL           1 ecer2   
      62 CEL1        -0.5704     0.2083   -24.7402 CEL1          1 ecer2   
      63 HEL1         0.5289     0.1852   -24.7259 HEL1          1 ecer2   
      64 CEL1        -1.1850     0.2605   -25.9629 CEL1          1 ecer2   
      65 HEL1        -2.2801     0.3605   -26.0232 HEL1          1 ecer2   
      66 CTL2        -0.5257     0.3159   -27.3430 CTL2          1 ecer2   
      67 HAL2         0.4320     0.8799   -27.2796 HAL2          1 ecer2   
      68 HAL2        -0.2616    -0.7165   -27.6640 HAL2          1 ecer2   
      69 CTL2        -1.3458     0.9732   -28.5139 CTL2          1 ecer2   
      70 HAL2        -2.2951     0.4071   -28.6289 HAL2          1 ecer2   
      71 HAL2        -1.6120     2.0105   -28.2166 HAL2          1 ecer2   
      72 CTL2        -0.6384     1.0361   -29.9155 CTL2          1 ecer2   
      73 HAL2         0.2856     1.6484   -29.8089 HAL2          1 ecer2   
      74 HAL2        -0.3223     0.0092   -30.2064 HAL2          1 ecer2   
      75 CTL2        -1.4750     1.6330   -31.1036 CTL2          1 ecer2   
      76 HAL2        -2.3666     0.9863   -31.2642 HAL2          1 ecer2   
      77 HAL2        -1.8428     2.6392   -30.8046 HAL2          1 ecer2   
      78 CTL2        -0.7298     1.7852   -32.4750 CTL2          1 ecer2   
      79 HAL2         0.1556     2.4386   -32.3212 HAL2          1 ecer2   
      80 HAL2        -0.3578     0.7879   -32.7949 HAL2          1 ecer2   
      81 CTL2        -1.5712     2.3882   -33.6507 CTL2          1 ecer2   
      82 HAL2        -2.4498     1.7268   -33.8375 HAL2          1 ecer2   
      83 HAL2        -1.9676     3.3798   -33.3278 HAL2          1 ecer2   
      84 CTL2        -0.8187     2.5919   -35.0088 CTL2          1 ecer2   
      85 HAL2         0.0666     3.2376   -34.8279 HAL2          1 ecer2   
      86 HAL2        -0.4495     1.6067   -35.3640 HAL2          1 ecer2   
      87 CTL2        -1.6639     3.2405   -36.1471 CTL2          1 ecer2   
      88 HAL2        -2.5537     2.6009   -36.3456 HAL2          1 ecer2   
      89 HAL2        -2.0340     4.2283   -35.7913 HAL2          1 ecer2   
      90 CTL2        -0.9233     3.4673   -37.4999 CTL2          1 ecer2   
      91 HAL2        -0.0135     4.0805   -37.3116 HAL2          1 ecer2   
      92 HAL2        -0.5881     2.4822   -37.8959 HAL2          1 ecer2   
      93 CTL2        -1.7691     4.1782   -38.5913 CTL2          1 ecer2   
      94 HAL2        -2.6836     3.5791   -38.7880 HAL2          1 ecer2   
      95 HAL2        -2.0924     5.1660   -38.1998 HAL2          1 ecer2   
      96 CTL2        -1.0439     4.4098   -39.9440 CTL2          1 ecer2   
      97 HAL2        -0.1092     4.9881   -39.7664 HAL2          1 ecer2   
      98 HAL2        -0.7481     3.4276   -40.3773 HAL2          1 ecer2   
      99 CTL2        -1.8876     5.1735   -40.9925 CTL2          1 ecer2   
     100 HAL2        -2.8345     4.6167   -41.1693 HAL2          1 ecer2   
     101 HAL2        -2.1613     6.1670   -40.5733 HAL2          1 ecer2   
     102 CTL3        -1.1729     5.4145   -42.4216 CTL3          1 ecer2   
     103 HAL3        -1.8035     5.9945   -43.1560 HAL3          1 ecer2   
     104 HAL3        -0.2067     5.9916   -42.3654 HAL3          1 ecer2   
     105 HAL3        -0.9057     4.4676   -42.9721 HAL3          1 ecer2   
@<TRIPOS>BOND
       1       93       94 1
       2       38       39 1
       3       29       30 1
       4        8       11 1
       5       14       17 1
       6       33       32 1
       7       41       43 1
       8       96       98 1
       9       23       25 1
      10       99      100 1
      11       44       45 1
      12      102      103 1
      13       66       67 1
      14       47       48 1
      15       51       58 1
      16       51       52 1
      17       69       71 1
      18        8        9 1
      19       41       44 1
      20       96       99 1
      21       72       74 1
      22       84       86 1
      23       11       12 1
      24       81       83 1
      25       51        1 1
      26       90       91 1
      27       53       55 1
      28       35       36 1
      29       20       22 1
      30       11       14 1
      31       23       24 1
      32       78       81 1
      33       44       47 1
      34       99      102 1
      35       32       29 1
      36       84       87 1
      37       81       84 1
      38       26       27 1
      39       64       66 1
      40      102      104 1
      41       47       49 1
      42       66       68 1
      43       20       23 1
      44       29       31 1
      45       47       50 1
      46       66       69 1
      47      102      105 1
      48       72       75 1
      49       56       57 1
      50       99      101 1
      51       44       46 1
      52       75       78 1
      53        5        8 1
      54       17       20 1
      55       90       92 1
      56       53       56 1
      57       35       37 1
      58       11       13 1
      59        5        7 1
      60       93       96 1
      61       38       41 1
      62       69       70 1
      63       26       28 1
      64       87       88 1
      65       51       53 1
      66       17       18 1
      67       87       90 1
      68       58       59 1
      69       81       82 1
      70       38       40 1
      71       93       95 1
      72       78       79 1
      73       34       32 1
      74       75       77 1
      75       17       19 1
      76       75       76 1
      77       26       29 1
      78       58       60 1
      79       23       26 1
      80       62       63 1
      81        3        1 1
      82       69       72 1
      83       78       80 1
      84       14       15 1
      85       64       65 1
      86        1        2 1
      87       84       85 1
      88       87       89 1
      89       58       62 1
      90        3        4 1
      91       41       42 1
      92       60       61 1
      93       96       97 1
      94       54       53 1
      95       35       32 1
      96       20       21 1
      97        8       10 1
      98       72       73 1
      99       90       93 1
     100       62       64 1
     101       35       38 1
     102        3        5 1
     103       14       16 1
     104        5        6 1
@<TRIPOS>SUBSTRUCTURE
       1 ecer2           1 RESIDUE    0 **** ROOT      0
