@<TRIPOS>MOLECULE
ecer2
105 104 1 0 1
SMALL
NO_CHARGES
@<TRIPOS>CRYSIN
    8.3943    15.0313    48.7813    90.0000    90.0000    90.0000  1  1
@<TRIPOS>ATOM
       1 NH1         -0.2696    -0.3637    -1.4496 NH1           1 ecer2   
       2 HN1         -0.8356    -1.1873    -1.5930 HN1           1 ecer2   
       3 CLN          0.2361     0.2809    -2.5681 CLN           1 ecer2   
       4 OBL          0.8720     1.3314    -2.5052 OBL           1 ecer2   
       5 CTL2         0.0889    -0.4194    -3.9475 CTL2          1 ecer2   
       6 HAL2        -0.6418    -1.2474    -3.8590 HAL2          1 ecer2   
       7 HAL2         1.0644    -0.8736    -4.1956 HAL2          1 ecer2   
       8 CTL2        -0.3211     0.4825    -5.1890 CTL2          1 ecer2   
       9 HAL2        -1.4244     0.6336    -5.1709 HAL2          1 ecer2   
      10 HAL2         0.1446     1.4920    -5.0912 HAL2          1 ecer2   
      11 CTL2         0.1101    -0.0750    -6.5982 CTL2          1 ecer2   
      12 HAL2         1.2130     0.0537    -6.6680 HAL2          1 ecer2   
      13 HAL2        -0.0958    -1.1671    -6.6385 HAL2          1 ecer2   
      14 CTL2        -0.5401     0.5585    -7.8841 CTL2          1 ecer2   
      15 HAL2        -1.5917     0.2013    -7.9375 HAL2          1 ecer2   
      16 HAL2        -0.5716     1.6656    -7.7770 HAL2          1 ecer2   
      17 CTL2         0.1768     0.2384    -9.2482 CTL2          1 ecer2   
      18 HAL2         1.1177     0.8338    -9.2796 HAL2          1 ecer2   
      19 HAL2         0.4657    -0.8360    -9.2614 HAL2          1 ecer2   
      20 CTL2        -0.6325     0.5075   -10.5670 CTL2          1 ecer2   
      21 HAL2        -1.4648    -0.2294   -10.6041 HAL2          1 ecer2   
      22 HAL2        -1.0867     1.5209   -10.5183 HAL2          1 ecer2   
      23 CTL2         0.1787     0.4140   -11.9071 CTL2          1 ecer2   
      24 HAL2         0.8733     1.2825   -11.9494 HAL2          1 ecer2   
      25 HAL2         0.8021    -0.5072   -11.8899 HAL2          1 ecer2   
      26 CTL2        -0.6639     0.3797   -13.2253 CTL2          1 ecer2   
      27 HAL2        -1.2525    -0.5642   -13.2290 HAL2          1 ecer2   
      28 HAL2        -1.3886     1.2232   -13.2221 HAL2          1 ecer2   
      29 CTL2         0.1484     0.4587   -14.5610 CTL2          1 ecer2   
      30 HAL2         0.6152     1.4667   -14.6280 HAL2          1 ecer2   
      31 HAL2         0.9718    -0.2885   -14.5305 HAL2          1 ecer2   
      32 CTL2        -0.6728     0.2013   -15.8618 CTL2          1 ecer2   
      33 HAL2        -1.0564    -0.8421   -15.8267 HAL2          1 ecer2   
      34 HAL2        -1.5518     0.8813   -15.8804 HAL2          1 ecer2   
      35 CTL2         0.1038     0.3898   -17.1982 CTL2          1 ecer2   
      36 HAL2         0.3971     1.4598   -17.2932 HAL2          1 ecer2   
      37 HAL2         1.0399    -0.2119   -17.1669 HAL2          1 ecer2   
      38 CTL2        -0.6845    -0.0230   -18.4756 CTL2          1 ecer2   
      39 HAL2        -0.9238    -1.1070   -18.4027 HAL2          1 ecer2   
      40 HAL2        -1.6490     0.5315   -18.5030 HAL2          1 ecer2   
      41 CTL2         0.0549     0.2274   -19.8153 CTL2          1 ecer2   
      42 HAL2         0.2365     1.3171   -19.9277 HAL2          1 ecer2   
      43 HAL2         1.0431    -0.2790   -19.7879 HAL2          1 ecer2   
      44 CTL2        -0.7109    -0.2765   -21.0616 CTL2          1 ecer2   
      45 HAL2        -0.8723    -1.3773   -20.9666 HAL2          1 ecer2   
      46 HAL2        -1.7193     0.2012   -21.0912 HAL2          1 ecer2   
      47 CTL3         0.0000     0.0000   -22.3998 CTL3          1 ecer2   
      48 HAL3         0.1255     1.0904   -22.5644 HAL3          1 ecer2   
      49 HAL3         0.9999    -0.4817   -22.4266 HAL3          1 ecer2   
      50 HAL3        -0.5937    -0.4043   -23.2483 HAL3          1 ecer2   
      51 CTL1         0.0000     0.0000     0.0000 CTL1          1 ecer2   
      52 HAL1         1.1099     0.0002     0.1243 HAL1          1 ecer2   
      53 CTL2        -0.5175     1.4661     0.2719 CTL2          1 ecer2   
      54 HAL2        -1.2510     1.7841    -0.4986 HAL2          1 ecer2   
      55 HAL2        -1.0208     1.5470     1.2588 HAL2          1 ecer2   
      56 OHL          0.5733     2.3840     0.2529 OHL           1 ecer2   
      57 HOL          0.9270     2.3519    -0.6493 HOL           1 ecer2   
      58 CTL1        -0.6055    -1.1133     0.9399 CTL1          1 ecer2   
      59 HAL1        -0.4089    -2.1070     0.4774 HAL1          1 ecer2   
      60 OHL         -2.0240    -0.9822     1.0450 OHL           1 ecer2   
      61 HOL         -2.1813    -0.2668     1.6668 HOL           1 ecer2   
      62 CEL1         0.1121    -1.1509     2.3208 CEL1          1 ecer2   
      63 HEL1         1.2104    -1.1769     2.2749 HEL1          1 ecer2   
      64 CEL1        -0.4699    -1.2233     3.5585 CEL1          1 ecer2   
      65 HEL1        -1.5663    -1.2760     3.6474 HEL1          1 ecer2   
      66 CTL2         0.2244    -1.3623     4.9153 CTL2          1 ecer2   
      67 HAL2         1.1529    -1.9660     4.8021 HAL2          1 ecer2   
      68 HAL2         0.5448    -0.3562     5.2671 HAL2          1 ecer2   
      69 CTL2        -0.5921    -2.0274     6.0843 CTL2          1 ecer2   
      70 HAL2        -1.5107    -1.4240     6.2487 HAL2          1 ecer2   
      71 HAL2        -0.9141    -3.0391     5.7560 HAL2          1 ecer2   
      72 CTL2         0.1505    -2.1768     7.4608 CTL2          1 ecer2   
      73 HAL2         1.0419    -2.8256     7.3038 HAL2          1 ecer2   
      74 HAL2         0.5217    -1.1775     7.7809 HAL2          1 ecer2   
      75 CTL2        -0.6792    -2.7815     8.6498 CTL2          1 ecer2   
      76 HAL2        -1.5352    -2.1021     8.8612 HAL2          1 ecer2   
      77 HAL2        -1.1013    -3.7576     8.3240 HAL2          1 ecer2   
      78 CTL2         0.0961    -3.0208     9.9918 CTL2          1 ecer2   
      79 HAL2         0.9458    -3.7068     9.7871 HAL2          1 ecer2   
      80 HAL2         0.5227    -2.0545    10.3380 HAL2          1 ecer2   
      81 CTL2        -0.7390    -3.6307    11.1682 CTL2          1 ecer2   
      82 HAL2        -1.5806    -2.9382    11.4060 HAL2          1 ecer2   
      83 HAL2        -1.1897    -4.5901    10.8200 HAL2          1 ecer2   
      84 CTL2         0.0410    -3.9212    12.4948 CTL2          1 ecer2   
      85 HAL2         0.8901    -4.5986    12.2634 HAL2          1 ecer2   
      86 HAL2         0.4650    -2.9683    12.8758 HAL2          1 ecer2   
      87 CTL2        -0.8012    -4.5751    13.6323 CTL2          1 ecer2   
      88 HAL2        -1.6546    -3.9043    13.8812 HAL2          1 ecer2   
      89 HAL2        -1.2263    -5.5305    13.2505 HAL2          1 ecer2   
      90 CTL2        -0.0344    -4.8879    14.9530 CTL2          1 ecer2   
      91 HAL2         0.8405    -5.5336    14.7146 HAL2          1 ecer2   
      92 HAL2         0.3570    -3.9351    15.3758 HAL2          1 ecer2   
      93 CTL2        -0.8812    -5.6021    16.0413 CTL2          1 ecer2   
      94 HAL2        -1.7613    -4.9706    16.2876 HAL2          1 ecer2   
      95 HAL2        -1.2606    -6.5582    15.6225 HAL2          1 ecer2   
      96 CTL2        -0.1300    -5.9190    17.3621 CTL2          1 ecer2   
      97 HAL2         0.7716    -6.5314    17.1351 HAL2          1 ecer2   
      98 HAL2         0.2228    -4.9688    17.8233 HAL2          1 ecer2   
      99 CTL2        -0.9784    -6.6843    18.4056 CTL2          1 ecer2   
     100 HAL2        -1.8933    -6.0927    18.6314 HAL2          1 ecer2   
     101 HAL2        -1.3093    -7.6473    17.9574 HAL2          1 ecer2   
     102 CTL3        -0.2360    -7.0130    19.8027 CTL3          1 ecer2   
     103 HAL3        -0.8720    -7.5924    20.5330 HAL3          1 ecer2   
     104 HAL3         0.7006    -7.6305    19.6960 HAL3          1 ecer2   
     105 HAL3         0.0900    -6.1014    20.3805 HAL3          1 ecer2   
@<TRIPOS>BOND
       1       44       47 1
       2       51       58 1
       3        8       10 1
       4       53       56 1
       5       11       14 1
       6       26       27 1
       7       29       32 1
       8        8       11 1
       9       69       70 1
      10       93       94 1
      11       41       42 1
      12       20       21 1
      13       14       17 1
      14       32       33 1
      15       53       55 1
      16       47       49 1
      17       26       28 1
      18       62       63 1
      19        3        4 1
      20       75       77 1
      21        5        7 1
      22       20       22 1
      23       11       13 1
      24       62       58 1
      25       26       29 1
      26       29       31 1
      27       81       82 1
      28       93       96 1
      29       58       59 1
      30       72       74 1
      31       44       46 1
      32        5        8 1
      33       51       53 1
      34       78       81 1
      35       75       76 1
      36       64       65 1
      37       23       24 1
      38       20       23 1
      39       60       61 1
      40       96       97 1
      41       62       64 1
      42       17       18 1
      43       87       90 1
      44       38       39 1
      45       41       43 1
      46       32       34 1
      47       84       85 1
      48       53       54 1
      49       87       88 1
      50       72       75 1
      51       23       26 1
      52       44       45 1
      53       14       15 1
      54       11       12 1
      55       99      100 1
      56        1       51 1
      57        1        2 1
      58       69       72 1
      59       75       78 1
      60       47       48 1
      61       60       58 1
      62       41       44 1
      63       99      102 1
      64       66       67 1
      65      102      103 1
      66       81       84 1
      67       32       35 1
      68        5        6 1
      69       64       66 1
      70       47       50 1
      71       14       16 1
      72       37       35 1
      73       90       91 1
      74      102      105 1
      75       66       69 1
      76        3        5 1
      77       38       40 1
      78       84       86 1
      79       23       25 1
      80       90       92 1
      81       90       93 1
      82       93       95 1
      83      102      104 1
      84       66       68 1
      85       81       83 1
      86       96       98 1
      87       29       30 1
      88        8        9 1
      89       87       89 1
      90        1        3 1
      91       69       71 1
      92       72       73 1
      93       56       57 1
      94       51       52 1
      95       78       79 1
      96       38       35 1
      97       99      101 1
      98       36       35 1
      99       78       80 1
     100       38       41 1
     101       96       99 1
     102       17       20 1
     103       84       87 1
     104       17       19 1
@<TRIPOS>SUBSTRUCTURE
       1 ecer2           1 RESIDUE    0 **** ROOT      0
