@<TRIPOS>MOLECULE
ucer6
133 132 1 0 1
SMALL
NO_CHARGES
@<TRIPOS>CRYSIN
   10.4308    10.9052    38.0473    90.0000    90.0000    90.0000  1  1
@<TRIPOS>ATOM
       1 NH1          0.4084     0.3296   -29.9400 NH1           1 ucer6   
       2 HN1         -0.0765     0.0664   -30.7691 HN1           1 ucer6   
       3 CLN         -0.1129     0.0482   -28.7334 CLN           1 ucer6   
       4 OBL         -1.1845    -0.5313   -28.6666 OBL           1 ucer6   
       5 CTL2         0.6444     0.4584   -27.4780 CTL2          1 ucer6   
       6 HAL2         0.7853     1.5883   -27.4599 HAL2          1 ucer6   
       7 OHL          1.6344    -0.0456   -27.4760 OHL           1 ucer6   
       8 CTL2        -0.1750     0.0149   -26.2640 CTL2          1 ucer6   
       9 HAL2        -1.1708     0.5100   -26.2830 HAL2          1 ucer6   
      10 HAL2        -0.3048    -1.0890   -26.2828 HAL2          1 ucer6   
      11 CTL2         0.5763     0.4221   -24.9977 CTL2          1 ucer6   
      12 HAL2         1.5732    -0.0730   -24.9816 HAL2          1 ucer6   
      13 HAL2         0.7072     1.5260   -24.9818 HAL2          1 ucer6   
      14 CTL2        -0.2312    -0.0156   -23.7725 CTL2          1 ucer6   
      15 HAL2        -1.2251     0.4795   -23.7895 HAL2          1 ucer6   
      16 HAL2        -0.3611    -1.1175   -23.7884 HAL2          1 ucer6   
      17 CTL2         0.5220     0.3906   -22.5042 CTL2          1 ucer6   
      18 HAL2         1.5139    -0.1025   -22.4872 HAL2          1 ucer6   
      19 HAL2         0.6509     1.4935   -22.4864 HAL2          1 ucer6   
      20 CTL2        -0.2865    -0.0450   -21.2781 CTL2          1 ucer6   
      21 HAL2        -1.2804     0.4481   -21.2941 HAL2          1 ucer6   
      22 HAL2        -0.4164    -1.1489   -21.2949 HAL2          1 ucer6   
      23 CTL2         0.4637     0.3601   -20.0087 CTL2          1 ucer6   
      24 HAL2         1.4586    -0.1340   -19.9917 HAL2          1 ucer6   
      25 HAL2         0.5946     1.4640   -19.9919 HAL2          1 ucer6   
      26 CTL2        -0.3438    -0.0765   -18.7836 CTL2          1 ucer6   
      27 HAL2        -1.3367     0.4186   -18.8006 HAL2          1 ucer6   
      28 HAL2        -0.4727    -1.1794   -18.7994 HAL2          1 ucer6   
      29 CTL2         0.4084     0.3296   -17.5143 CTL2          1 ucer6   
      30 HAL2         1.4013    -0.1635   -17.4973 HAL2          1 ucer6   
      31 HAL2         0.5383     1.4326   -17.4984 HAL2          1 ucer6   
      32 CTL2        -0.3991    -0.1070   -16.2891 CTL2          1 ucer6   
      33 HAL2        -1.3939     0.3871   -16.3062 HAL2          1 ucer6   
      34 HAL2        -0.5290    -1.2089   -16.3060 HAL2          1 ucer6   
      35 CTL2         0.3511     0.3002   -15.0188 CTL2          1 ucer6   
      36 HAL2         1.3470    -0.1939   -15.0028 HAL2          1 ucer6   
      37 HAL2         0.4831     1.4041   -15.0040 HAL2          1 ucer6   
      38 CTL2        -0.4553    -0.1374   -13.7947 CTL2          1 ucer6   
      39 HAL2        -1.4502     0.3567   -13.8107 HAL2          1 ucer6   
      40 HAL2        -0.5862    -1.2403   -13.8115 HAL2          1 ucer6   
      41 CTL2         0.2949     0.2687   -12.5254 CTL2          1 ucer6   
      42 HAL2         1.2908    -0.2244   -12.5093 HAL2          1 ucer6   
      43 HAL2         0.4258     1.3726   -12.5085 HAL2          1 ucer6   
      44 CTL2        -0.5116    -0.1669   -11.3012 CTL2          1 ucer6   
      45 HAL2        -1.5065     0.3262   -11.3173 HAL2          1 ucer6   
      46 HAL2        -0.6415    -1.2708   -11.3161 HAL2          1 ucer6   
      47 CTL2         0.2396     0.2382   -10.0309 CTL2          1 ucer6   
      48 HAL2         1.2345    -0.2559   -10.0139 HAL2          1 ucer6   
      49 HAL2         0.3705     1.3412   -10.0161 HAL2          1 ucer6   
      50 CTL2        -0.5679    -0.1994    -8.8068 CTL2          1 ucer6   
      51 HAL2        -1.5628     0.2947    -8.8218 HAL2          1 ucer6   
      52 HAL2        -0.6988    -1.3023    -8.8226 HAL2          1 ucer6   
      53 CTL2         0.1803     0.2058    -7.5355 CTL2          1 ucer6   
      54 HAL2         1.1752    -0.2853    -7.5214 HAL2          1 ucer6   
      55 HAL2         0.3112     1.3087    -7.5216 HAL2          1 ucer6   
      56 CTL2        -0.6332    -0.2328    -6.3144 CTL2          1 ucer6   
      57 HAL2        -0.7728    -1.3335    -6.3623 HAL2          1 ucer6   
      58 HAL2        -1.6308     0.2495    -6.3626 HAL2          1 ucer6   
      59 CTL2         0.0848     0.1552    -5.0195 CTL2          1 ucer6   
      60 HAL2         0.2336     1.2560    -4.9875 HAL2          1 ucer6   
      61 HAL2         1.0856    -0.3211    -4.9873 HAL2          1 ucer6   
      62 CTL2        -0.7187    -0.2795    -3.7933 CTL2          1 ucer6   
      63 HAL2        -0.8934    -1.3763    -3.8245 HAL2          1 ucer6   
      64 HAL2        -1.7057     0.2315    -3.7942 HAL2          1 ucer6   
      65 CTL2         0.0435     0.0796    -2.5162 CTL2          1 ucer6   
      66 HAL2         0.2152     1.1774    -2.4781 HAL2          1 ucer6   
      67 HAL2         1.0345    -0.4233    -2.5193 HAL2          1 ucer6   
      68 CTL2        -0.7491    -0.3590    -1.2830 CTL2          1 ucer6   
      69 HAL2        -0.9177    -1.4568    -1.3301 HAL2          1 ucer6   
      70 HAL2        -1.7430     0.1330    -1.2970 HAL2          1 ucer6   
      71 CTL3         0.0000     0.0000     0.0000 CTL3          1 ucer6   
      72 HAL3         0.9889    -0.5041     0.0109 HAL3          1 ucer6   
      73 HAL3        -0.5985    -0.3381     0.8736 HAL3          1 ucer6   
      74 HAL3         0.1446     1.1027     0.0520 HAL3          1 ucer6   
      75 CTL1         1.6643     1.0094   -30.0336 CTL1          1 ucer6   
      76 HAL1         2.3139     0.7853   -29.1595 HAL1          1 ucer6   
      77 CTL2         2.4230     0.5471   -31.2874 CTL2          1 ucer6   
      78 HAL2         1.8146     0.8293   -32.1737 HAL2          1 ucer6   
      79 HAL2         3.3798     1.1048   -31.3783 HAL2          1 ucer6   
      80 OHL          2.6747    -0.8481   -31.2500 OHL           1 ucer6   
      81 HOL          3.1096    -1.1134   -32.0632 HOL           1 ucer6   
      82 CTL1         1.4101     2.4860   -30.1194 CTL1          1 ucer6   
      83 HAL1         0.3187     2.6917   -30.0843 HAL1          1 ucer6   
      84 OHL          1.9849     3.0930   -31.2663 OHL           1 ucer6   
      85 HOL          1.8140     4.0381   -31.2722 HOL           1 ucer6   
      86 CTL1         1.9678     3.1735   -28.9078 CTL1          1 ucer6   
      87 HAL1         2.2223     4.2446   -29.2041 HAL1          1 ucer6   
      88 OHL          3.2783     2.5015   -28.6163 OHL           1 ucer6   
      89 HOL          3.6878     3.0053   -27.7282 HOL           1 ucer6   
      90 CTL2         1.3078     3.2204   -27.7440 CTL2          1 ucer6   
      91 HAL2         0.7339     4.2054   -27.7470 HAL2          1 ucer6   
      92 HAL2         0.5199     2.3975   -27.7655 HAL2          1 ucer6   
      93 CTL2         1.9965     3.1481   -26.4105 CTL2          1 ucer6   
      94 HAL2         2.5185     2.1742   -26.2929 HAL2          1 ucer6   
      95 HAL2         2.7615     3.9453   -26.2924 HAL2          1 ucer6   
      96 CTL2         0.9887     3.2890   -25.2671 CTL2          1 ucer6   
      97 HAL2         0.4969     4.2852   -25.2913 HAL2          1 ucer6   
      98 HAL2         0.2478     2.4611   -25.2892 HAL2          1 ucer6   
      99 CTL2         1.7866     3.1799   -23.9680 CTL2          1 ucer6   
     100 HAL2         2.2593     2.1858   -23.8089 HAL2          1 ucer6   
     101 HAL2         2.5093     4.0079   -23.8090 HAL2          1 ucer6   
     102 CTL2         0.7263     3.3253   -22.8759 CTL2          1 ucer6   
     103 HAL2         0.2257     4.3178   -22.8092 HAL2          1 ucer6   
     104 HAL2        -0.0214     2.5057   -22.8070 HAL2          1 ucer6   
     105 CTL2         1.5111     3.2191   -21.5669 CTL2          1 ucer6   
     106 HAL2         1.9781     2.2394   -21.3287 HAL2          1 ucer6   
     107 HAL2         2.2242     4.0355   -21.3291 HAL2          1 ucer6   
     108 CTL2         0.4726     3.3613   -20.4537 CTL2          1 ucer6   
     109 HAL2        -0.0375     4.3404   -20.3292 HAL2          1 ucer6   
     110 HAL2        -0.2845     2.5554   -20.3278 HAL2          1 ucer6   
     111 CTL2         1.2243     3.2590   -19.1239 CTL2          1 ucer6   
     112 HAL2         1.6980     2.2921   -18.8526 HAL2          1 ucer6   
     113 HAL2         1.9410     4.0632   -18.8521 HAL2          1 ucer6   
     114 CTL2         0.2185     3.3970   -17.9784 CTL2          1 ucer6   
     115 HAL2        -0.3076     4.3671   -17.8511 HAL2          1 ucer6   
     116 HAL2        -0.5476     2.6050   -17.8525 HAL2          1 ucer6   
     117 CTL2         0.9269     3.3015   -16.6240 CTL2          1 ucer6   
     118 HAL2         1.4208     2.3367   -16.3735 HAL2          1 ucer6   
     119 HAL2         1.6629     4.0968   -16.3751 HAL2          1 ucer6   
     120 CTL2        -0.0441     3.4353   -15.4523 CTL2          1 ucer6   
     121 HAL2        -0.5808     4.4057   -15.3720 HAL2          1 ucer6   
     122 HAL2        -0.8208     2.6447   -15.3694 HAL2          1 ucer6   
     123 CTL2         0.6393     3.3427   -14.0890 CTL2          1 ucer6   
     124 HAL2         1.1476     2.3724   -13.8944 HAL2          1 ucer6   
     125 HAL2         1.3897     4.1374   -13.8950 HAL2          1 ucer6   
     126 CTL2        -0.3198     3.4734   -12.9032 CTL2          1 ucer6   
     127 HAL2        -0.8548     4.4484   -12.9009 HAL2          1 ucer6   
     128 HAL2        -1.1009     2.6834   -12.9034 HAL2          1 ucer6   
     129 CTL3         0.3485     3.3818   -11.5311 CTL3          1 ucer6   
     130 HAL3        -0.3459     3.4758   -10.6703 HAL3          1 ucer6   
     131 HAL3         0.8734     2.4109   -11.4054 HAL3          1 ucer6   
     132 HAL3         1.1186     4.1781   -11.4209 HAL3          1 ucer6   
     133 HOL          2.6344    -0.0456   -27.4675 HOL           1 ucer6   
@<TRIPOS>BOND
       1        3        1 1
       2      126      128 1
       3       59       61 1
       4       90       92 1
       5       75       82 1
       6      117      120 1
       7      129      132 1
       8       93       96 1
       9       77       80 1
      10      108      109 1
      11       38       39 1
      12       26       29 1
      13      111      114 1
      14       41       44 1
      15       59       62 1
      16       90       93 1
      17      126      129 1
      18       23       26 1
      19       75        1 1
      20       66       65 1
      21       62       64 1
      22       23       24 1
      23       86       82 1
      24       11       12 1
      25       44       45 1
      26      102      103 1
      27       96       99 1
      28      114      115 1
      29       32       33 1
      30       75       76 1
      31       26       28 1
      32       86       88 1
      33        5        8 1
      34      108      110 1
      35       38       40 1
      36       14       15 1
      37       56       58 1
      38       71       73 1
      39      123      125 1
      40       86       90 1
      41       14       16 1
      42       53       50 1
      43       67       65 1
      44      102      104 1
      45       32       34 1
      46      129      131 1
      47       93       95 1
      48       77       79 1
      49      108      111 1
      50       38       41 1
      51       41       43 1
      52      111      113 1
      53       68       65 1
      54       52       50 1
      55      123      126 1
      56       71       74 1
      57       56       59 1
      58        2        1 1
      59      117      119 1
      60       23       25 1
      61       35       36 1
      62      105      106 1
      63      102      105 1
      64       32       35 1
      65       68       69 1
      66      120      121 1
      67       53       54 1
      68        5        7 1
      69        8        9 1
      70       29       30 1
      71       51       50 1
      72       62       65 1
      73       99      100 1
      74       11       14 1
      75      114      116 1
      76       44       46 1
      77       20       21 1
      78       68       70 1
      79      120      122 1
      80       53       55 1
      81      105      108 1
      82       35       38 1
      83      120      123 1
      84       68       71 1
      85       53       56 1
      86       17       20 1
      87       96       97 1
      88       80       81 1
      89      117      118 1
      90       93       94 1
      91       77       78 1
      92      129      130 1
      93       17       18 1
      94       20       23 1
      95       83       82 1
      96       88       89 1
      97        8       10 1
      98       44       47 1
      99      114      117 1
     100      123      124 1
     101       71       72 1
     102       56       57 1
     103       62       63 1
     104       84       85 1
     105       17       19 1
     106       50       47 1
     107       96       98 1
     108        3        4 1
     109       20       22 1
     110        5        6 1
     111       35       37 1
     112      105      107 1
     113       14       17 1
     114        8       11 1
     115       75       77 1
     116       84       82 1
     117       41       42 1
     118      111      112 1
     119       59       60 1
     120       90       91 1
     121      126      127 1
     122       86       87 1
     123       49       47 1
     124        3        5 1
     125      133        7 1
     126       26       27 1
     127       99      102 1
     128       29       32 1
     129       48       47 1
     130       11       13 1
     131       29       31 1
     132       99      101 1
@<TRIPOS>SUBSTRUCTURE
       1 ucer6           1 RESIDUE    0 **** ROOT      0
