@<TRIPOS>MOLECULE
oh22
69 68 1 0 1
SMALL
USER_CHARGES
@<TRIPOS>CRYSIN
    8.7655     7.8743    34.1820    90.0000    90.0000    90.0000  1  1
@<TRIPOS>ATOM
       1 CG321       -1.0752    -0.7270   -13.6703 CG321         1 oh22      -0.180000
       2 CG321       -0.5416    -0.0056   -12.4443 CG321         1 oh22      -0.180000
       3 HGA2        -2.1878    -0.7759   -13.6194 HGA2          1 oh22       0.090000
       4 HGA2        -0.6907    -1.7733   -13.6841 HGA2          1 oh22       0.090000
       5 HGA2        -0.9265     1.0401   -12.4310 HGA2          1 oh22       0.090000
       6 HGA2         0.5705     0.0427   -12.4957 HGA2          1 oh22       0.090000
       7 CG321       -0.9621    -0.7194   -11.1710 CG321         1 oh22      -0.180000
       8 CG321       -0.4285     0.0020    -9.9451 CG321         1 oh22      -0.180000
       9 HGA2        -0.5774    -1.7652   -11.1857 HGA2          1 oh22       0.090000
      10 HGA2        -2.0744    -0.7679   -11.1210 HGA2          1 oh22       0.090000
      11 HGA2        -0.8132     1.0481    -9.9326 HGA2          1 oh22       0.090000
      12 HGA2         0.6838     0.0507    -9.9973 HGA2          1 oh22       0.090000
      13 CG321       -0.8479    -0.7103    -8.6693 CG321         1 oh22      -0.180000
      14 CG321       -0.3141     0.0113    -7.4420 CG321         1 oh22      -0.180000
      15 HGA2        -0.4634    -1.7563    -8.6854 HGA2          1 oh22       0.090000
      16 HGA2        -1.9604    -0.7590    -8.6207 HGA2          1 oh22       0.090000
      17 HGA2        -0.6987     1.0577    -7.4317 HGA2          1 oh22       0.090000
      18 HGA2         0.7983     0.0603    -7.4964 HGA2          1 oh22       0.090000
      19 CG321       -0.7314    -0.6980    -6.1626 CG321         1 oh22      -0.180000
      20 CG321       -0.1996     0.0202    -4.9295 CG321         1 oh22      -0.180000
      21 HGA2        -0.3475    -1.7449    -6.1806 HGA2          1 oh22       0.090000
      22 HGA2        -1.8446    -0.7476    -6.1159 HGA2          1 oh22       0.090000
      23 HGA2        -0.5842     1.0666    -4.9192 HGA2          1 oh22       0.090000
      24 HGA2         0.9129     0.0692    -4.9839 HGA2          1 oh22       0.090000
      25 CG321       -0.6189    -0.6921    -3.6501 CG321         1 oh22      -0.180000
      26 CG321       -0.0953     0.0126    -2.3986 CG321         1 oh22      -0.181000
      27 HGA2        -0.2354    -1.7391    -3.6767 HGA2          1 oh22       0.090000
      28 HGA2        -1.7324    -0.7417    -3.6120 HGA2          1 oh22       0.090000
      29 HGA2        -0.4769     1.0594    -2.3823 HGA2          1 oh22       0.090000
      30 HGA2         1.0168     0.0642    -2.4469 HGA2          1 oh22       0.090000
      31 CG321       -0.5171    -0.7037    -1.1176 CG321         1 oh22       0.051000
      32 OG311        0.0000     0.0000     0.0000 OG311         1 oh22      -0.650000
      33 HGA2        -0.1227    -1.7459    -1.1305 HGA2          1 oh22       0.090000
      34 HGA2        -1.6297    -0.7419    -1.0654 HGA2          1 oh22       0.090000
      35 HGP1        -0.2812    -0.4735     0.7926 HGP1          1 oh22       0.420000
      36 CG321       -0.6549    -0.0136   -14.9427 CG321         1 oh22      -0.180000
      37 CG321       -1.1885    -0.7350   -16.1687 CG321         1 oh22      -0.180000
      38 HGA2         0.4576     0.0353   -14.9936 HGA2          1 oh22       0.090000
      39 HGA2        -1.0394     1.0327   -14.9289 HGA2          1 oh22       0.090000
      40 HGA2        -2.3006    -0.7833   -16.1173 HGA2          1 oh22       0.090000
      41 HGA2        -0.8036    -1.7806   -16.1820 HGA2          1 oh22       0.090000
      42 CG321       -0.7680    -0.0212   -17.4420 CG321         1 oh22      -0.180000
      43 CG321       -1.3016    -0.7426   -18.6679 CG321         1 oh22      -0.180000
      44 HGA2         0.3443     0.0273   -17.4920 HGA2          1 oh22       0.090000
      45 HGA2        -1.1527     1.0247   -17.4273 HGA2          1 oh22       0.090000
      46 HGA2        -2.4140    -0.7913   -18.6157 HGA2          1 oh22       0.090000
      47 HGA2        -0.9170    -1.7887   -18.6804 HGA2          1 oh22       0.090000
      48 CG321       -0.8822    -0.0303   -19.9437 CG321         1 oh22      -0.180000
      49 CG321       -1.4157    -0.7514   -21.1718 CG321         1 oh22      -0.180000
      50 HGA2         0.2303     0.0184   -19.9923 HGA2          1 oh22       0.090000
      51 HGA2        -1.2668     1.0157   -19.9276 HGA2          1 oh22       0.090000
      52 HGA2        -2.5282    -0.8004   -21.1174 HGA2          1 oh22       0.090000
      53 HGA2        -1.0312    -1.7978   -21.1821 HGA2          1 oh22       0.090000
      54 CG321       -0.9984    -0.0421   -22.4512 CG321         1 oh22      -0.180000
      55 CG321       -1.5310    -0.7615   -23.6841 CG321         1 oh22      -0.180000
      56 HGA2         0.1145     0.0073   -22.4993 HGA2          1 oh22       0.090000
      57 HGA2        -1.3825     1.0046   -22.4346 HGA2          1 oh22       0.090000
      58 HGA2        -2.6430    -0.8098   -23.6291 HGA2          1 oh22       0.090000
      59 HGA2        -1.1463    -1.8077   -23.6930 HGA2          1 oh22       0.090000
      60 CG321       -1.1134    -0.0514   -24.9665 CG321         1 oh22      -0.180000
      61 CG321       -1.6358    -0.7563   -26.2152 CG321         1 oh22      -0.180000
      62 HGA2         0.0000    -0.0000   -25.0085 HGA2          1 oh22       0.090000
      63 HGA2        -1.4958     0.9956   -24.9444 HGA2          1 oh22       0.090000
      64 HGA2        -2.7487    -0.8080   -26.1589 HGA2          1 oh22       0.090000
      65 HGA2        -1.2545    -1.8041   -26.2226 HGA2          1 oh22       0.090000
      66 CG331       -1.2175    -0.0469   -27.4991 CG331         1 oh22      -0.270000
      67 HGA3        -0.1083    -0.0037   -27.5688 HGA3          1 oh22       0.090000
      68 HGA3        -1.6067     0.9952   -27.5049 HGA3          1 oh22       0.090000
      69 HGA3        -1.6106    -0.5792   -28.3894 HGA3          1 oh22       0.090000
@<TRIPOS>BOND
       1       51       48 1
       2       11        8 1
       3       46       43 1
       4       61       60 1
       5       52       49 1
       6       30       26 1
       7        1        3 1
       8       57       54 1
       9       10        7 1
      10       29       26 1
      11        5        2 1
      12       25       20 1
      13        1        4 1
      14       56       54 1
      15       39       36 1
      16       13        8 1
      17       45       42 1
      18       34       31 1
      19       15       13 1
      20       65       61 1
      21       32       31 1
      22       26       25 1
      23       19       14 1
      24       23       20 1
      25       47       43 1
      26       20       19 1
      27        8        7 1
      28       58       55 1
      29        2        1 1
      30       17       14 1
      31       40       37 1
      32       55       54 1
      33       22       19 1
      34       64       61 1
      35       43       42 1
      36       31       26 1
      37       50       48 1
      38       14       13 1
      39       48       43 1
      40       42       37 1
      41       12        8 1
      42       21       19 1
      43       24       20 1
      44       68       66 1
      45        7        2 1
      46       38       36 1
      47        6        2 1
      48       27       25 1
      49        9        7 1
      50       53       49 1
      51       33       31 1
      52       60       55 1
      53       35       32 1
      54       28       25 1
      55       36        1 1
      56       41       37 1
      57       67       66 1
      58       63       60 1
      59       54       49 1
      60       69       66 1
      61       16       13 1
      62       37       36 1
      63       49       48 1
      64       59       55 1
      65       44       42 1
      66       18       14 1
      67       62       60 1
      68       66       61 1
@<TRIPOS>SUBSTRUCTURE
       1 oh22            1 RESIDUE    0 **** ROOT      0
