@<TRIPOS>MOLECULE
oh12
39 38 1 0 1
SMALL
NO_CHARGES
@<TRIPOS>CRYSIN
    8.0377     8.3908    21.6781    90.0000    90.0000    90.0000  1  1
@<TRIPOS>ATOM
       1 CG321       -0.2493    -0.4072     7.5576 CG321         1 oh12    
       2 CG321        0.2452     0.3968     6.3586 CG321         1 oh12    
       3 HGA2         0.1741    -1.4351     7.5137 HGA2          1 oh12    
       4 HGA2        -1.3576    -0.4934     7.5134 HGA2          1 oh12    
       5 HGA2         1.3544     0.4825     6.4028 HGA2          1 oh12    
       6 HGA2        -0.1781     1.4247     6.4025 HGA2          1 oh12    
       7 CG321       -0.1613    -0.2649     5.0459 CG321         1 oh12    
       8 CG321        0.3323     0.5378     3.8444 CG321         1 oh12    
       9 HGA2        -1.2697    -0.3512     5.0053 HGA2          1 oh12    
      10 HGA2         0.2619    -1.2929     5.0056 HGA2          1 oh12    
      11 HGA2         1.4400     0.6230     3.8904 HGA2          1 oh12    
      12 HGA2        -0.0916     1.5647     3.8902 HGA2          1 oh12    
      13 CG321       -0.0757    -0.1262     2.5310 CG321         1 oh12    
      14 CG321        0.4080     0.6620     1.3144 CG321         1 oh12    
      15 HGA2        -1.1852    -0.2144     2.4965 HGA2          1 oh12    
      16 HGA2         0.3464    -1.1561     2.4967 HGA2          1 oh12    
      17 HGA2         1.5178     0.7507     1.3615 HGA2          1 oh12    
      18 HGA2        -0.0127     1.6924     1.3621 HGA2          1 oh12    
      19 CG331        0.0000     0.0000     0.0000 CG331         1 oh12    
      20 HGA3        -1.1068    -0.0799    -0.0609 HGA3          1 oh12    
      21 HGA3         0.4280    -1.0242    -0.0614 HGA3          1 oh12    
      22 HGA3         0.3635     0.5910    -0.8668 HGA3          1 oh12    
      23 CG321        0.1575     0.2548     8.8689 CG321         1 oh12    
      24 CG321       -0.3355    -0.5467    10.0707 CG321         1 oh12    
      25 HGA2        -0.2655     1.2832     8.9100 HGA2          1 oh12    
      26 HGA2         1.2662     0.3415     8.9103 HGA2          1 oh12    
      27 HGA2         0.0879    -1.5746    10.0268 HGA2          1 oh12    
      28 HGA2        -1.4438    -0.6329    10.0266 HGA2          1 oh12    
      29 CG321        0.0739     0.1195    11.3825 CG321         1 oh12    
      30 CG321       -0.4110    -0.6688    12.6019 CG321         1 oh12    
      31 HGA2        -0.3497     1.1488    11.4129 HGA2          1 oh12    
      32 HGA2         1.1836     0.2061    11.4131 HGA2          1 oh12    
      33 HGA2         0.0101    -1.6985    12.5632 HGA2          1 oh12    
      34 HGA2        -1.5198    -0.7578    12.5629 HGA2          1 oh12    
      35 CG321       -0.0000     0.0000    13.9130 CG321         1 oh12    
      36 OG311       -0.4777    -0.7766    15.0018 OG311         1 oh12    
      37 HGA2        -0.4331     1.0254    13.9566 HGA2          1 oh12    
      38 HGA2         1.1105     0.0764    13.9568 HGA2          1 oh12    
      39 HGP1        -0.2054    -0.3336    15.8113 HGP1          1 oh12    
@<TRIPOS>BOND
       1        3        1 1
       2        9        7 1
       3        6        2 1
       4       34       30 1
       5       27       24 1
       6       14       13 1
       7       10        7 1
       8       36       35 1
       9       20       19 1
      10       28       24 1
      11       37       35 1
      12       38       35 1
      13       19       14 1
      14       21       19 1
      15        4        1 1
      16       22       19 1
      17       11        8 1
      18       24       23 1
      19       26       23 1
      20       32       29 1
      21       12        8 1
      22       25       23 1
      23       16       13 1
      24       18       14 1
      25       33       30 1
      26        8        7 1
      27       35       30 1
      28        7        2 1
      29       31       29 1
      30       13        8 1
      31       15       13 1
      32       39       36 1
      33       30       29 1
      34        2        1 1
      35       29       24 1
      36        5        2 1
      37       23        1 1
      38       17       14 1
@<TRIPOS>SUBSTRUCTURE
       1 oh12            1 RESIDUE    0 **** ROOT      0
