@<TRIPOS>MOLECULE
oh12
39 38 1 0 1
SMALL
NO_CHARGES
@<TRIPOS>CRYSIN
    8.0376     8.3909    21.6781    90.0000    90.0000    90.0000  1  1
@<TRIPOS>ATOM
       1             -0.2493    -0.4072    -6.3554               1 oh12    
       2              0.2452     0.3968    -7.5544               1 oh12    
       3              0.1741    -1.4351    -6.3993               1 oh12    
       4             -1.3576    -0.4934    -6.3996               1 oh12    
       5              1.3544     0.4825    -7.5102               1 oh12    
       6             -0.1781     1.4247    -7.5105               1 oh12    
       7             -0.1613    -0.2649    -8.8671               1 oh12    
       8              0.3323     0.5378   -10.0686               1 oh12    
       9             -1.2697    -0.3512    -8.9076               1 oh12    
      10 10           0.2619    -1.2929    -8.9074 10            1 oh12    
      11 11           1.4400     0.6230   -10.0225 11            1 oh12    
      12 12          -0.0916     1.5647   -10.0228 12            1 oh12    
      13 13          -0.0757    -0.1262   -11.3819 13            1 oh12    
      14 14           0.4080     0.6620   -12.5985 14            1 oh12    
      15 15          -1.1852    -0.2144   -11.4165 15            1 oh12    
      16 16           0.3464    -1.1561   -11.4162 16            1 oh12    
      17 17           1.5178     0.7507   -12.5515 17            1 oh12    
      18 18          -0.0127     1.6924   -12.5509 18            1 oh12    
      19 19           0.0000    -0.0000   -13.9130 19            1 oh12    
      20 20          -1.1068    -0.0799   -13.9738 20            1 oh12    
      21 21           0.4280    -1.0242   -13.9744 21            1 oh12    
      22 22           0.3635     0.5910   -14.7797 22            1 oh12    
      23 23           0.1575     0.2548    -5.0441 23            1 oh12    
      24 24          -0.3355    -0.5467    -3.8422 24            1 oh12    
      25 25          -0.2655     1.2832    -5.0029 25            1 oh12    
      26 26           1.2662     0.3415    -5.0027 26            1 oh12    
      27 27           0.0879    -1.5746    -3.8861 27            1 oh12    
      28 28          -1.4438    -0.6329    -3.8864 28            1 oh12    
      29 29           0.0739     0.1195    -2.5304 29            1 oh12    
      30 30          -0.4110    -0.6688    -1.3111 30            1 oh12    
      31 31          -0.3497     1.1488    -2.5001 31            1 oh12    
      32 32           1.1836     0.2061    -2.4998 32            1 oh12    
      33 33           0.0101    -1.6985    -1.3498 33            1 oh12    
      34 34          -1.5198    -0.7578    -1.3501 34            1 oh12    
      35 35           0.0000     0.0000     0.0000 35            1 oh12    
      36 36          -0.4777    -0.7766     1.0888 36            1 oh12    
      37 37          -0.4331     1.0254     0.0436 37            1 oh12    
      38 38           1.1105     0.0764     0.0439 38            1 oh12    
      39 39          -0.2054    -0.3336     1.8984 39            1 oh12    
@<TRIPOS>BOND
       1       10        7 1
       2       28       24 1
       3       30       29 1
       4       19       20 1
       5       27       24 1
       6        3        1 1
       7       37       35 1
       8       26       23 1
       9       11        8 1
      10       14       19 1
      11       14       18 1
      12        1       23 1
      13       19       22 1
      14        1        4 1
      15       35       30 1
      16       29       24 1
      17       34       30 1
      18       12        8 1
      19       24       23 1
      20       14       13 1
      21        9        7 1
      22       36       39 1
      23       14       17 1
      24        2        5 1
      25       32       29 1
      26        2        6 1
      27       31       29 1
      28        2        1 1
      29       19       21 1
      30       13       16 1
      31       36       35 1
      32        2        7 1
      33       33       30 1
      34       15       13 1
      35       38       35 1
      36        8        7 1
      37       25       23 1
      38       13        8 1
@<TRIPOS>SUBSTRUCTURE
       1 oh12            1 RESIDUE    0 **** ROOT      0
