@<TRIPOS>MOLECULE
oh12
39 38 1 0 1
SMALL
NO_CHARGES
@<TRIPOS>CRYSIN
    8.0376     8.3909    21.6781    90.0000    90.0000    90.0000  1  1
@<TRIPOS>ATOM
       1 C6          -0.2493    -0.4072    -6.3554 CG321         1 oh12    
       2 C7           0.2452     0.3968    -7.5544 CG321         1 oh12    
       3 H12          0.1741    -1.4351    -6.3993 HGA2          1 oh12    
       4 H13         -1.3576    -0.4934    -6.3996 HGA2          1 oh12    
       5 H14          1.3544     0.4825    -7.5102 HGA2          1 oh12    
       6 H15         -0.1781     1.4247    -7.5105 HGA2          1 oh12    
       7 C8          -0.1613    -0.2649    -8.8671 CG321         1 oh12    
       8 C9           0.3323     0.5378   -10.0686 CG321         1 oh12    
       9 H16         -1.2697    -0.3512    -8.9076 HGA2          1 oh12    
      10 H17          0.2619    -1.2929    -8.9074 HGA2          1 oh12    
      11 H18          1.4400     0.6230   -10.0225 HGA2          1 oh12    
      12 H19         -0.0916     1.5647   -10.0228 HGA2          1 oh12    
      13 C10         -0.0757    -0.1262   -11.3819 CG321         1 oh12    
      14 C11          0.4080     0.6620   -12.5985 CG321         1 oh12    
      15 H21         -1.1852    -0.2144   -11.4165 HGA2          1 oh12    
      16 H20          0.3464    -1.1561   -11.4162 HGA2          1 oh12    
      17 H23          1.5178     0.7507   -12.5515 HGA2          1 oh12    
      18 H22         -0.0127     1.6924   -12.5509 HGA2          1 oh12    
      19 C12          0.0000    -0.0000   -13.9130 CG331         1 oh12    
      20 H25         -1.1068    -0.0799   -13.9738 HGA3          1 oh12    
      21 H24          0.4280    -1.0242   -13.9744 HGA3          1 oh12    
      22 H26          0.3635     0.5910   -14.7797 HGA3          1 oh12    
      23 C5           0.1575     0.2548    -5.0441 CG321         1 oh12    
      24 C4          -0.3355    -0.5467    -3.8422 CG321         1 oh12    
      25 H10         -0.2655     1.2832    -5.0029 HGA2          1 oh12    
      26 H11          1.2662     0.3415    -5.0027 HGA2          1 oh12    
      27 H8           0.0879    -1.5746    -3.8861 HGA2          1 oh12    
      28 H9          -1.4438    -0.6329    -3.8864 HGA2          1 oh12    
      29 C3           0.0739     0.1195    -2.5304 CG321         1 oh12    
      30 C2          -0.4110    -0.6688    -1.3111 CG321         1 oh12    
      31 H6          -0.3497     1.1488    -2.5001 HGA2          1 oh12    
      32 H7           1.1836     0.2061    -2.4998 HGA2          1 oh12    
      33 H4           0.0101    -1.6985    -1.3498 HGA2          1 oh12    
      34 H5          -1.5198    -0.7578    -1.3501 HGA2          1 oh12    
      35 C1           0.0000     0.0000     0.0000 CG321         1 oh12    
      36 O           -0.4777    -0.7766     1.0888 OG311         1 oh12    
      37 H2          -0.4331     1.0254     0.0436 HGA2          1 oh12    
      38 H3           1.1105     0.0764     0.0439 HGA2          1 oh12    
      39 H1          -0.2054    -0.3336     1.8984 HGP1          1 oh12    
@<TRIPOS>BOND
       1       19       20 1
       2       14       13 1
       3        2        7 1
       4       30       29 1
       5       35       30 1
       6        2        5 1
       7       15       13 1
       8        1        4 1
       9       28       24 1
      10       32       29 1
      11       14       19 1
      12       14       17 1
      13       34       30 1
      14       12        8 1
      15       39       36 1
      16       24       23 1
      17       33       30 1
      18       26       23 1
      19       19       21 1
      20       37       35 1
      21       14       18 1
      22       36       35 1
      23        1       23 1
      24       11        8 1
      25       10        7 1
      26       29       24 1
      27        2        6 1
      28        3        1 1
      29       31       29 1
      30       38       35 1
      31       13        8 1
      32        8        7 1
      33        2        1 1
      34       13       16 1
      35       27       24 1
      36       25       23 1
      37        9        7 1
      38       19       22 1
@<TRIPOS>SUBSTRUCTURE
       1 oh12            1 RESIDUE    0 **** ROOT      0
