@<TRIPOS>MOLECULE
pchd
50 49 1 0 1
SMALL
USER_CHARGES
@<TRIPOS>CRYSIN
   13.9528    17.1622    31.1323    90.0000    90.0000    90.0000  1  1
@<TRIPOS>ATOM
       1 NTL          3.7648     8.6931     3.8504 NTL           1 pchd      -0.600000
       2 CTL5         5.1892     9.0609     3.5936 CTL5          1 pchd      -0.350000
       3 HL           5.3990     8.8693     2.5554 HL            1 pchd       0.250000
       4 HL           5.9642     8.5880     4.1900 HL            1 pchd       0.250000
       5 HL           5.2785    10.1270     3.7344 HL            1 pchd       0.250000
       6 CTL5         3.4380     8.9250     5.3526 CTL5          1 pchd      -0.350000
       7 HL           4.1212     8.3590     5.9759 HL            1 pchd       0.250000
       8 HL           2.4632     8.5442     5.5919 HL            1 pchd       0.250000
       9 HL           3.4584     9.9908     5.5478 HL            1 pchd       0.250000
      10 CTL5         2.8411     9.5728     3.1023 CTL5          1 pchd      -0.350000
      11 HL           2.8552    10.5639     3.5337 HL            1 pchd       0.250000
      12 HL           1.8659     9.1149     3.1147 HL            1 pchd       0.250000
      13 HL           3.1039     9.7320     2.0681 HL            1 pchd       0.250000
      14 CTL2         3.5830     7.1875     3.3686 CTL2          1 pchd      -0.100000
      15 HL           4.0088     6.4306     3.9999 HL            1 pchd       0.250000
      16 HL           4.0371     7.1969     2.3902 HL            1 pchd       0.250000
      17 CTL2         2.1217     6.7346     3.1354 CTL2          1 pchd      -0.080000
      18 HAL2         2.0614     5.7993     2.5503 HAL2          1 pchd       0.090000
      19 HAL2         1.5611     7.4906     2.5430 HAL2          1 pchd       0.090000
      20 PL          -0.1558     6.4170     4.4541 PL            1 pchd       1.500000
      21 O2L         -0.7278     7.6038     3.8783 O2L           1 pchd      -0.780000
      22 O2L         -0.5108     6.0856     5.8561 O2L           1 pchd      -0.780000
      23 OSLP        -0.2550     5.1063     3.5611 OSLP          1 pchd      -0.570000
      24 OSLP         1.4656     6.5903     4.3667 OSLP          1 pchd      -0.570000
      25 CTL2        -1.3494     4.4516     3.0710 CTL2          1 pchd      -0.080000
      26 HAL2        -2.2996     5.0099     3.2677 HAL2          1 pchd       0.090000
      27 HAL2        -1.4804     3.4307     3.4858 HAL2          1 pchd       0.090000
      28 CTL1        -1.2636     4.4577     1.5403 CTL1          1 pchd       0.170000
      29 HAL1        -2.3125     4.2046     1.2967 HAL1          1 pchd       0.090000
      30 OSL         -0.3000     3.5881     1.0231 OSL           1 pchd      -0.490000
      31 CL          -0.7217     2.4059     0.6195 CL            1 pchd       0.900000
      32 OBL         -1.8731     2.0124     0.6958 OBL           1 pchd      -0.630000
      33 CTL2         0.4398     1.4544     0.4111 CTL2          1 pchd      -0.220000
      34 HAL2         0.8587     1.3536     1.4295 HAL2          1 pchd       0.090000
      35 HAL2         1.0819     1.8342    -0.4034 HAL2          1 pchd       0.090000
      36 CTL2        -0.9128     5.8905     0.9585 CTL2          1 pchd       0.080000
      37 HAL2         0.1073     6.1191     1.3384 HAL2          1 pchd       0.090000
      38 HAL2        -1.6966     6.5566     1.3771 HAL2          1 pchd       0.090000
      39 OSL         -0.8062     5.8915    -0.4484 OSL           1 pchd      -0.490000
      40 CL          -0.6079     6.9388    -1.0923 CL            1 pchd       0.900000
      41 OBL         -0.3512     8.0321    -0.6661 OBL           1 pchd      -0.630000
      42 CTL2        -0.8945     6.6354    -2.5916 CTL2          1 pchd      -0.220000
      43 HAL2        -1.8001     7.2523    -2.7609 HAL2          1 pchd       0.090000
      44 HAL2        -1.0608     5.5469    -2.7453 HAL2          1 pchd       0.090000
      45 CTL2         0.0000     0.0000     0.0000 CTL2          1 pchd      -0.180000
      46 HAL2        -0.6750    -0.4229     0.7763 HAL2          1 pchd       0.090000
      47 HAL2         0.8781    -0.6789    -0.0458 HAL2          1 pchd       0.090000
      48 CTL2         0.0924     7.1330    -3.6218 CTL2          1 pchd      -0.180000
      49 HAL2         1.1236     6.7460    -3.5004 HAL2          1 pchd       0.090000
      50 HAL2         0.1490     8.2366    -3.5369 HAL2          1 pchd       0.090000
@<TRIPOS>BOND
       1       14        1 1
       2        3        2 1
       3       48       49 1
       4        4        2 1
      5       40       41 1
      6       14       16 1
      7       36       38 1
      8       44       42 1
      9        8        6 1
      10       48       42 1
      11       45       46 1
      12       45       33 1
      13        2        5 1
      14        1        6 1
      15       36       39 1
      16       28       29 1
      17       25       28 1
      18       20       24 1
      19       17       24 1
      20       20       23 1
      21       45       47 1
      22       31       32 1
      23       20       22 1
      24       10       11 1
      25       10       13 1
      26       36       37 1
      27       33       34 1
      28        1        2 1
      29       10        1 1
      30       31       33 1
      31       30       31 1
      32        7        6 1
      33       28       36 1
      34       43       42 1
      35       40       42 1
      36       28       30 1
      37        9        6 1
     38       17       18 1
     39       14       15 1
     40       33       35 1
     41       48       50 1
     42       39       40 1
     43       25       26 1
     44       10       12 1
     45       25       27 1
     46       23       25 1
     47       17       19 1
     48       14       17 1
     49       20       21 1
@<TRIPOS>SUBSTRUCTURE
       1 pchd            1 RESIDUE    0 **** ROOT      0
