@<TRIPOS>MOLECULE
ecer6
109 108 1 0 1
SMALL
NO_CHARGES
@<TRIPOS>CRYSIN
   11.5563     9.4373    28.4452    90.0000    90.0000    90.0000  1  1
@<TRIPOS>ATOM
       1 N1          -2.2727    -0.7090    -0.1323 NH1           1 ecer6   
       2 H2          -2.5624    -1.2079     0.6795 HN1           1 ecer6   
       3 C3          -2.6674    -1.1141    -1.3517 CLN           1 ecer6   
       4 O4          -3.3821    -2.0979    -1.4515 OBL           1 ecer6   
       5 C5          -2.2142    -0.3374    -2.5802 CTL2          1 ecer6   
       6 H6          -1.0773    -0.3390    -2.6446 HAL2          1 ecer6   
       7 O7          -2.5864     0.7064    -2.5016 OHL           1 ecer6   
       8 C8          -2.8081    -1.0168    -3.8162 CTL2          1 ecer6   
       9 H9          -2.4448    -2.0663    -3.8777 HAL2          1 ecer6   
      10 H10         -3.9179    -1.0075    -3.7518 HAL2          1 ecer6   
      11 C11         -2.3593    -0.2450    -5.0558 CTL2          1 ecer6   
      12 H12         -2.7223     0.8054    -4.9912 HAL2          1 ecer6   
      13 H13         -1.2492    -0.2534    -5.1172 HAL2          1 ecer6   
      14 C14         -2.9462    -0.9126    -6.3025 CTL2          1 ecer6   
      15 H15         -2.5827    -1.9600    -6.3659 HAL2          1 ecer6   
      16 H16         -4.0542    -0.9035    -6.2411 HAL2          1 ecer6   
      17 C17         -2.4982    -0.1386    -7.5439 CTL2          1 ecer6   
      18 H18         -2.8600     0.9066    -7.4807 HAL2          1 ecer6   
      19 H19         -1.3895    -0.1488    -7.6074 HAL2          1 ecer6   
      20 C20         -3.0833    -0.8075    -8.7917 CTL2          1 ecer6   
      21 H21         -2.7219    -1.8546    -8.8561 HAL2          1 ecer6   
      22 H22         -4.1932    -0.7981    -8.7293 HAL2          1 ecer6   
      23 C23         -2.6367    -0.0363   -10.0343 CTL2          1 ecer6   
      24 H24         -2.9991     1.0120    -9.9708 HAL2          1 ecer6   
      25 H25         -1.5267    -0.0446   -10.0967 HAL2          1 ecer6   
      26 C26         -3.2227    -0.7040   -11.2810 CTL2          1 ecer6   
      27 H27         -2.8591    -1.7505   -11.3444 HAL2          1 ecer6   
      28 H28         -4.3315    -0.6938   -11.2196 HAL2          1 ecer6   
      29 C29         -2.7748     0.0690   -12.5235 CTL2          1 ecer6   
      30 H30         -3.1365     1.1152   -12.4602 HAL2          1 ecer6   
      31 H31         -1.6659     0.0598   -12.5849 HAL2          1 ecer6   
      32 C32         -3.3608    -0.5988   -13.7702 CTL2          1 ecer6   
      33 H33         -2.9984    -1.6470   -13.8336 HAL2          1 ecer6   
      34 H34         -4.4687    -0.5897   -13.7079 HAL2          1 ecer6   
      35 C35         -2.9123     0.1723   -15.0139 CTL2          1 ecer6   
      36 H36         -3.2745     1.2215   -14.9494 HAL2          1 ecer6   
      37 H37         -1.8020     0.1648   -15.0742 HAL2          1 ecer6   
      38 C38         -3.4990    -0.4945   -16.2595 CTL2          1 ecer6   
      39 H39         -3.1367    -1.5427   -16.3239 HAL2          1 ecer6   
      40 H40         -4.6080    -0.4863   -16.1971 HAL2          1 ecer6   
      41 C41         -3.0514     0.2766   -17.5021 CTL2          1 ecer6   
      42 H42         -3.4126     1.3257   -17.4376 HAL2          1 ecer6   
      43 H43         -1.9414     0.2683   -17.5645 HAL2          1 ecer6   
      44 C44         -3.6362    -0.3904   -18.7478 CTL2          1 ecer6   
      45 H45         -3.2749    -1.4384   -18.8122 HAL2          1 ecer6   
      46 H46         -4.7462    -0.3809   -18.6873 HAL2          1 ecer6   
      47 C47         -3.1895     0.3819   -19.9913 CTL3          1 ecer6   
      48 H48         -3.5519     1.4302   -19.9279 HAL3          1 ecer6   
      49 H49         -2.0804     0.3736   -20.0516 HAL3          1 ecer6   
      50 H50         -3.7764    -0.2858   -21.2370 HAL3          1 ecer6   
      51 C51         -1.4339     0.4430    -0.0002 CTL1          1 ecer6   
      52 H52         -1.6078     1.1690    -0.8240 HAL1          1 ecer6   
      53 C53         -1.7437     1.1739     1.3156 CTL2          1 ecer6   
      54 H54         -1.5065     0.4804     2.1512 HAL2          1 ecer6   
      55 H55         -1.0644     2.0453     1.4340 HAL2          1 ecer6   
      56 O56         -3.0954     1.6010     1.3597 OHL           1 ecer6   
      57 H57         -3.2695     2.0141     2.2082 HOL           1 ecer6   
      58 C58          0.0000     0.0000     0.0000 CTL1          1 ecer6   
      59 H59          0.0621    -1.1042    -0.1071 HAL1          1 ecer6   
      60 O60          0.7218     0.4209     1.1473 OHL           1 ecer6   
      61 H61          1.6365     0.1323     1.0980 HOL           1 ecer6   
      62 C62          0.7040     0.5415    -1.2096 CTL1          1 ecer6   
      63 H63          1.8101     0.6401    -0.9510 HAL1          1 ecer6   
      64 O64          0.1948     1.9418    -1.3933 OHL           1 ecer6   
      65 H65          0.7108     2.3394    -2.2798 HOL           1 ecer6   
      66 C66          0.6185    -0.0450    -2.4099 CTL2          1 ecer6   
      67 H67          1.5209    -0.7374    -2.4870 HAL2          1 ecer6   
      68 H68         -0.2973    -0.7227    -2.3938 HAL2          1 ecer6   
      69 C69          0.5815     0.7294    -3.6970 CTL2          1 ecer6   
      70 H70         -0.3211     1.3762    -3.7378 HAL2          1 ecer6   
      71 H71          1.4651     1.3939    -3.8095 HAL2          1 ecer6   
      72 C72          0.5454    -0.2145    -4.9014 CTL2          1 ecer6   
      73 H73          1.4703    -0.8283    -4.9532 HAL2          1 ecer6   
      74 H74         -0.3692    -0.8451    -4.8818 HAL2          1 ecer6   
      75 C75          0.4874     0.6706    -6.1462 CTL2          1 ecer6   
      76 H76         -0.4433     1.2737    -6.2302 HAL2          1 ecer6   
      77 H77          1.3943     1.2918    -6.3034 HAL2          1 ecer6   
      78 C78          0.4510    -0.3291    -7.3026 CTL2          1 ecer6   
      79 H79          1.3674    -0.9455    -7.4453 HAL2          1 ecer6   
      80 H80         -0.4600    -0.9619    -7.3745 HAL2          1 ecer6   
      81 C81          0.3938     0.5432    -8.5582 CTL2          1 ecer6   
      82 H82         -0.5265     1.1438    -8.7220 HAL2          1 ecer6   
      83 H83          1.2848     1.1613    -8.7940 HAL2          1 ecer6   
      84 C84          0.3562    -0.4332    -9.7343 CTL2          1 ecer6   
      85 H85          1.2558    -1.0536    -9.9346 HAL2          1 ecer6   
      86 H86         -0.5448    -1.0734    -9.8642 HAL2          1 ecer6   
      87 C87          0.2977     0.4072   -11.0127 CTL2          1 ecer6   
      88 H88         -0.6104     1.0149   -11.2097 HAL2          1 ecer6   
      89 H89          1.1757     1.0325   -11.2815 HAL2          1 ecer6   
      90 C90          0.2588    -0.5343   -12.2188 CTL2          1 ecer6   
      91 H91          1.1473    -1.1693   -12.4224 HAL2          1 ecer6   
      92 H92         -0.6294    -1.1852   -12.3500 HAL2          1 ecer6   
      93 C93          0.2006     0.2640   -13.5246 CTL2          1 ecer6   
      94 H94         -0.7020     0.8901   -13.6999 HAL2          1 ecer6   
      95 H95          1.0732     0.9080   -13.7691 HAL2          1 ecer6   
      96 C96          0.1610    -0.6409   -14.7548 CTL2          1 ecer6   
      97 H97          1.0503    -1.2894   -14.9120 HAL2          1 ecer6   
      98 H98         -0.7257    -1.3052   -14.8436 HAL2          1 ecer6   
      99 C99          0.1020     0.1327   -16.0709 CTL2          1 ecer6   
     100 H100        -0.8020     0.7703   -16.1893 HAL2          1 ecer6   
     101 H101         0.9781     0.7877   -16.2598 HAL2          1 ecer6   
     102 C102         0.0603    -0.7591   -17.3143 CTL2          1 ecer6   
     103 H103         0.9575    -1.4114   -17.3939 HAL2          1 ecer6   
     104 H104        -0.8230    -1.4330   -17.3206 HAL2          1 ecer6   
     105 C105         0.0000    -0.0000   -18.6402 CTL3          1 ecer6   
     106 H106        -0.0310    -0.6454   -19.5426 HAL3          1 ecer6   
     107 H107        -0.8996     0.6498   -18.6890 HAL3          1 ecer6   
     108 H108         0.8836     0.6691   -18.7444 HAL3          1 ecer6   
     109 H109        -2.4583     1.6970    -2.4531 HOL           1 ecer6   
@<TRIPOS>BOND
       1       99      100 1
       2       62       63 1
       3       72       74 1
       4       15       14 1
       5       75       78 1
       6       17       14 1
       7       90       91 1
       8       47       50 1
       9       18       17 1
      10        8        9 1
      11       93       96 1
      12       72       75 1
      13       21       20 1
      14       47       48 1
      15       66       67 1
      16       84       85 1
      17       96       97 1
      18       78       81 1
      19        1        2 1
      20       24       23 1
      21       14       11 1
      22        5        7 1
      23       29       30 1
      24       90       92 1
      25       26       28 1
      26       66       68 1
      27        5        8 1
      28       53       55 1
      29       69       71 1
      30       84       86 1
      31       58       62 1
      32       23       20 1
      33       75       77 1
      34       90       93 1
      35       51       52 1
      36       93       95 1
      37       29       31 1
      38       60       61 1
      39        7      109 1
      40       69       72 1
      41       22       20 1
      42       35       38 1
      43        5        6 1
      44       12       11 1
      45       41       42 1
      46       87       88 1
      47       84       87 1
      48      102      103 1
      49       16       14 1
      50        3        5 1
      51       23       26 1
      52       43       41 1
      53       81       82 1
      54       19       17 1
      55        3        1 1
      56       96       98 1
      57       53       54 1
      58      102      104 1
      59       87       90 1
      60       26       29 1
      61      102      105 1
      62       38       40 1
      63       78       79 1
      64       75       76 1
      65       62       66 1
      66       99      102 1
      67       51       58 1
      68       47       49 1
      69       32       35 1
      70       96       99 1
      71       44       45 1
      72       62       64 1
      73      105      106 1
      74       69       70 1
      75       25       23 1
      76       58       59 1
      77       41       44 1
      78       78       80 1
      79       13       11 1
      80       44       47 1
      81        3        4 1
      82       56       57 1
      83       87       89 1
      84       64       65 1
      85        1       51 1
      86       44       46 1
      87       93       94 1
      88       35       37 1
      89      105      107 1
      90       72       73 1
      91        8       10 1
      92       58       60 1
      93       53       56 1
      94       66       69 1
      95       26       27 1
      96       38       39 1
      97       99      101 1
      98      105      108 1
      99       51       53 1
     100       32       34 1
     101       20       17 1
     102       35       36 1
     103        8       11 1
     104       81       84 1
     105       29       32 1
     106       32       33 1
     107       38       41 1
     108       81       83 1
@<TRIPOS>SUBSTRUCTURE
       1 ecer6           1 RESIDUE    0 **** ROOT      0
