@<TRIPOS>MOLECULE
oh12
39 38 1 0 1
SMALL
USER_CHARGES
@<TRIPOS>CRYSIN
    8.0377     8.3908    21.6781    90.0000    90.0000    90.0000  1  1
@<TRIPOS>ATOM
       1 CG321       -0.2493    -0.4072    -6.3554 CG321         1 oh12      -0.180000
       2 CG321        0.2452     0.3968    -7.5544 CG321         1 oh12      -0.180000
       3 HGA2         0.1741    -1.4351    -6.3993 HGA2          1 oh12       0.090000
       4 HGA2        -1.3576    -0.4934    -6.3996 HGA2          1 oh12       0.090000
       5 HGA2         1.3544     0.4825    -7.5102 HGA2          1 oh12       0.090000
       6 HGA2        -0.1781     1.4247    -7.5105 HGA2          1 oh12       0.090000
       7 CG321       -0.1613    -0.2649    -8.8671 CG321         1 oh12      -0.180000
       8 CG321        0.3323     0.5378   -10.0686 CG321         1 oh12      -0.180000
       9 HGA2        -1.2697    -0.3512    -8.9076 HGA2          1 oh12       0.090000
      10 HGA2         0.2619    -1.2929    -8.9074 HGA2          1 oh12       0.090000
      11 HGA2         1.4400     0.6230   -10.0225 HGA2          1 oh12       0.090000
      12 HGA2        -0.0916     1.5647   -10.0228 HGA2          1 oh12       0.090000
      13 CG321       -0.0757    -0.1262   -11.3819 CG321         1 oh12      -0.180000
      14 CG321        0.4080     0.6620   -12.5985 CG321         1 oh12      -0.180000
      15 HGA2        -1.1852    -0.2144   -11.4165 HGA2          1 oh12       0.090000
      16 HGA2         0.3464    -1.1561   -11.4162 HGA2          1 oh12       0.090000
      17 HGA2         1.5178     0.7507   -12.5515 HGA2          1 oh12       0.090000
      18 HGA2        -0.0127     1.6924   -12.5509 HGA2          1 oh12       0.090000
      19 CG331        0.0000    -0.0000   -13.9130 CG331         1 oh12      -0.270000
      20 HGA3        -1.1068    -0.0799   -13.9738 HGA3          1 oh12       0.090000
      21 HGA3         0.4280    -1.0242   -13.9744 HGA3          1 oh12       0.090000
      22 HGA3         0.3635     0.5910   -14.7797 HGA3          1 oh12       0.090000
      23 CG321        0.1575     0.2548    -5.0441 CG321         1 oh12      -0.180000
      24 CG321       -0.3355    -0.5467    -3.8422 CG321         1 oh12      -0.180000
      25 HGA2        -0.2655     1.2832    -5.0029 HGA2          1 oh12       0.090000
      26 HGA2         1.2662     0.3415    -5.0027 HGA2          1 oh12       0.090000
      27 HGA2         0.0879    -1.5746    -3.8861 HGA2          1 oh12       0.090000
      28 HGA2        -1.4438    -0.6329    -3.8864 HGA2          1 oh12       0.090000
      29 CG321        0.0739     0.1195    -2.5304 CG321         1 oh12      -0.180000
      30 CG321       -0.4110    -0.6688    -1.3111 CG321         1 oh12      -0.181000
      31 HGA2        -0.3497     1.1488    -2.5001 HGA2          1 oh12       0.090000
      32 HGA2         1.1836     0.2061    -2.4998 HGA2          1 oh12       0.090000
      33 HGA2         0.0101    -1.6985    -1.3498 HGA2          1 oh12       0.090000
      34 HGA2        -1.5198    -0.7578    -1.3501 HGA2          1 oh12       0.090000
      35 CG321        0.0000     0.0000     0.0000 CG321         1 oh12       0.051000
      36 OG311       -0.4777    -0.7766     1.0888 OG311         1 oh12      -0.650000
      37 HGA2        -0.4331     1.0254     0.0436 HGA2          1 oh12       0.090000
      38 HGA2         1.1105     0.0764     0.0439 HGA2          1 oh12       0.090000
      39 HGP1        -0.2054    -0.3336     1.8984 HGP1          1 oh12       0.420000
@<TRIPOS>BOND
       1       21       19 1
       2       22       19 1
       3       14       13 1
       4        5        2 1
       5        3        1 1
       6       39       36 1
       7       30       29 1
       8       15       13 1
       9       34       30 1
      10       35       30 1
      11       32       29 1
      12       12        8 1
      13       37       35 1
      14        2        1 1
      15       31       29 1
      16       27       24 1
      17       23        1 1
      18       29       24 1
      19       10        7 1
      20       36       35 1
      21       16       13 1
      22        6        2 1
      23       33       30 1
      24       19       14 1
      25        4        1 1
      26       13        8 1
      27       24       23 1
      28       25       23 1
      29        9        7 1
      30       20       19 1
      31       26       23 1
      32       17       14 1
      33       11        8 1
      34       38       35 1
      35        7        2 1
      36       28       24 1
      37        8        7 1
      38       18       14 1
@<TRIPOS>SUBSTRUCTURE
       1 oh12            1 RESIDUE    0 **** ROOT      0
