@<TRIPOS>MOLECULE
oh24
75 74 1 0 1
SMALL
NO_CHARGES
@<TRIPOS>CRYSIN
    7.7505     7.8503    36.7068    90.0000    90.0000    90.0000  1  1
@<TRIPOS>ATOM
       1 CG321       -0.0088    -0.0142    15.0672 CG321         1 oh24    
       2 CG321        0.4900     0.6937    13.8186 CG321         1 oh24    
       3 HGA2         0.3489    -1.0692    15.0661 HGA2          1 oh24    
       4 HGA2        -1.1226    -0.0325    15.0660 HGA2          1 oh24    
       5 HGA2         1.6038     0.7121    13.8198 HGA2          1 oh24    
       6 HGA2         0.1323     1.7487    13.8197 HGA2          1 oh24    
       7 CG321       -0.0062    -0.0108    12.5676 CG321         1 oh24    
       8 CG321        0.4926     0.6971    11.3190 CG321         1 oh24    
       9 HGA2        -1.1200    -0.0291    12.5664 HGA2          1 oh24    
      10 HGA2         0.3515    -1.0658    12.5665 HGA2          1 oh24    
      11 HGA2         1.6064     0.7154    11.3202 HGA2          1 oh24    
      12 HGA2         0.1349     1.7521    11.3201 HGA2          1 oh24    
      13 CG321       -0.0035    -0.0073    10.0666 CG321         1 oh24    
      14 CG321        0.4946     0.6997     8.8164 CG321         1 oh24    
      15 HGA2        -1.1178    -0.0263    10.0660 HGA2          1 oh24    
      16 HGA2         0.3537    -1.0629    10.0661 HGA2          1 oh24    
      17 HGA2         1.6091     0.7190     8.8193 HGA2          1 oh24    
      18 HGA2         0.1376     1.7556     8.8191 HGA2          1 oh24    
      19 CG321       -0.0000    -0.0026     7.5623 CG321         1 oh24    
      20 CG321        0.4982     0.7045     6.3107 CG321         1 oh24    
      21 HGA2        -1.1145    -0.0218     7.5631 HGA2          1 oh24    
      22 HGA2         0.3571    -1.0585     7.5632 HGA2          1 oh24    
      23 HGA2         1.6121     0.7229     6.3155 HGA2          1 oh24    
      24 HGA2         0.1406     1.7596     6.3154 HGA2          1 oh24    
      25 CG321        0.0048     0.0039     5.0526 CG321         1 oh24    
      26 CG321        0.5023     0.7100     3.7958 CG321         1 oh24    
      27 HGA2        -1.1085    -0.0154     5.0542 HGA2          1 oh24    
      28 HGA2         0.3614    -1.0509     5.0543 HGA2          1 oh24    
      29 HGA2         1.6161     0.7283     3.8020 HGA2          1 oh24    
      30 HGA2         0.1446     1.7649     3.8019 HGA2          1 oh24    
      31 CG321        0.0076     0.0076     2.5344 CG321         1 oh24    
      32 CG321        0.4950     0.7010     1.2633 CG321         1 oh24    
      33 HGA2        -1.1055    -0.0114     2.5418 HGA2          1 oh24    
      34 HGA2         0.3644    -1.0469     2.5420 HGA2          1 oh24    
      35 HGA2         1.6090     0.7214     1.2706 HGA2          1 oh24    
      36 HGA2         0.1403     1.7568     1.2713 HGA2          1 oh24    
      37 CG331        0.0000     0.0000     0.0000 CG331         1 oh24    
      38 HGA3        -1.1112    -0.0129    -0.0188 HGA3          1 oh24    
      39 HGA3         0.3616    -1.0512    -0.0195 HGA3          1 oh24    
      40 HGA3         0.3680     0.5223    -0.9076 HGA3          1 oh24    
      41 CG321        0.4870     0.6897    16.3188 CG321         1 oh24    
      42 CG321       -0.0118    -0.0182    17.5673 CG321         1 oh24    
      43 HGA2         0.1298     1.7453    16.3193 HGA2          1 oh24    
      44 HGA2         1.6013     0.7087    16.3194 HGA2          1 oh24    
      45 HGA2         0.3464    -1.0725    17.5657 HGA2          1 oh24    
      46 HGA2        -1.1252    -0.0359    17.5656 HGA2          1 oh24    
      47 CG321        0.4843     0.6861    18.8198 CG321         1 oh24    
      48 CG321       -0.0142    -0.0213    20.0691 CG321         1 oh24    
      49 HGA2         0.1267     1.7413    18.8194 HGA2          1 oh24    
      50 HGA2         1.5982     0.7047    18.8196 HGA2          1 oh24    
      51 HGA2         0.3437    -1.0761    20.0667 HGA2          1 oh24    
      52 HGA2        -1.1279    -0.0394    20.0665 HGA2          1 oh24    
      53 CG321        0.4813     0.6822    21.3235 CG321         1 oh24    
      54 CG321       -0.0178    -0.0261    22.5749 CG321         1 oh24    
      55 HGA2         0.1237     1.7374    21.3232 HGA2          1 oh24    
      56 HGA2         1.5952     0.7007    21.3233 HGA2          1 oh24    
      57 HGA2         0.3399    -1.0812    22.5702 HGA2          1 oh24    
      58 HGA2        -1.1317    -0.0445    22.5701 HGA2          1 oh24    
      59 CG321        0.4761     0.6752    23.8324 CG321         1 oh24    
      60 CG321       -0.0214    -0.0310    25.0892 CG321         1 oh24    
      61 HGA2         0.1184     1.7301    23.8298 HGA2          1 oh24    
      62 HGA2         1.5899     0.6934    23.8300 HGA2          1 oh24    
      63 HGA2         0.3354    -1.0854    25.0845 HGA2          1 oh24    
      64 HGA2        -1.1345    -0.0500    25.0844 HGA2          1 oh24    
      65 CG321        0.4749     0.6737    26.3474 CG321         1 oh24    
      66 CG321       -0.0133    -0.0191    27.6222 CG321         1 oh24    
      67 HGA2         0.1172     1.7287    26.3363 HGA2          1 oh24    
      68 HGA2         1.5887     0.6920    26.3364 HGA2          1 oh24    
      69 HGA2         0.3417    -1.0745    27.6236 HGA2          1 oh24    
      70 HGA2        -1.1265    -0.0401    27.6235 HGA2          1 oh24    
      71 CG321        0.4851     0.6885    28.8803 CG321         1 oh24    
      72 OG311        0.0000     0.0000    30.0253 OG311         1 oh24    
      73 HGA2         0.1178     1.7402    28.8835 HGA2          1 oh24    
      74 HGA2         1.5991     0.6966    28.8836 HGA2          1 oh24    
      75 HGP1         0.3273     0.4647    30.7992 HGP1          1 oh24    
@<TRIPOS>BOND
       1       36       32 1
       2       67       65 1
       3       72       71 1
       4       11        8 1
       5        7        2 1
       6       48       47 1
       7       44       41 1
       8       20       19 1
       9       75       72 1
      10       12        8 1
      11       42       41 1
      12       41        1 1
      13       49       47 1
      14       71       66 1
      15       19       14 1
      16       53       48 1
      17        5        2 1
      18       52       48 1
      19       61       59 1
      20        6        2 1
      21        9        7 1
      22       15       13 1
      23       37       32 1
      24       26       25 1
      25       69       66 1
      26       51       48 1
      27       46       42 1
      28       73       71 1
      29       21       19 1
      30       64       60 1
      31        8        7 1
      32       33       31 1
      33       56       53 1
      34       27       25 1
      35       35       32 1
      36       68       65 1
      37       24       20 1
      38       45       42 1
      39       63       60 1
      40       23       20 1
      41       40       37 1
      42       57       54 1
      43       32       31 1
      44       50       47 1
      45       30       26 1
      46       62       59 1
      47       55       53 1
      48       39       37 1
      49       58       54 1
      50       74       71 1
      51        3        1 1
      52        4        1 1
      53       29       26 1
      54       59       54 1
      55       25       20 1
      56       14       13 1
      57       47       42 1
      58       13        8 1
      59       54       53 1
      60       66       65 1
      61       10        7 1
      62       28       25 1
      63       16       13 1
      64       22       19 1
      65       70       66 1
      66       18       14 1
      67       34       31 1
      68       60       59 1
      69       17       14 1
      70        2        1 1
      71       43       41 1
      72       65       60 1
      73       31       26 1
      74       38       37 1
@<TRIPOS>SUBSTRUCTURE
       1 oh24            1 RESIDUE    0 **** ROOT      0
