@<TRIPOS>MOLECULE
oh24
75 74 1 0 1
SMALL
NO_CHARGES
@<TRIPOS>CRYSIN
    8.1357     8.4641    36.6912    90.0000    90.0000    90.0000  1  1
@<TRIPOS>ATOM
       1 CG321       -0.2508    -0.3807   -13.8323 CG321         1 oh24    
       2 CG321        0.2471     0.3715   -15.0551 CG321         1 oh24    
       3 HGA2         0.1377    -1.4245   -13.8525 HGA2          1 oh24    
       4 HGA2        -1.3634    -0.4312   -13.8526 HGA2          1 oh24    
       5 HGA2         1.3597     0.4220   -15.0347 HGA2          1 oh24    
       6 HGA2        -0.1414     1.4153   -15.0348 HGA2          1 oh24    
       7 CG321       -0.2081    -0.3165   -16.3307 CG321         1 oh24    
       8 CG321        0.2897     0.4357   -17.5535 CG321         1 oh24    
       9 HGA2        -1.3207    -0.3670   -16.3510 HGA2          1 oh24    
      10 HGA2         0.1804    -1.3603   -16.3509 HGA2          1 oh24    
      11 HGA2         1.4024     0.4862   -17.5331 HGA2          1 oh24    
      12 HGA2        -0.0987     1.4795   -17.5332 HGA2          1 oh24    
      13 CG321       -0.1652    -0.2521   -18.8304 CG321         1 oh24    
      14 CG321        0.3320     0.4992   -20.0549 CG321         1 oh24    
      15 HGA2        -1.2783    -0.3033   -18.8502 HGA2          1 oh24    
      16 HGA2         0.2228    -1.2966   -18.8501 HGA2          1 oh24    
      17 HGA2         1.4452     0.5506   -20.0329 HGA2          1 oh24    
      18 HGA2        -0.0559     1.5440   -20.0330 HGA2          1 oh24    
      19 CG321       -0.1216    -0.1865   -21.3336 CG321         1 oh24    
      20 CG321        0.3758     0.5650   -22.5594 CG321         1 oh24    
      21 HGA2        -1.2349    -0.2379   -21.3520 HGA2          1 oh24    
      22 HGA2         0.2662    -1.2312   -21.3518 HGA2          1 oh24    
      23 HGA2         1.4884     0.6155   -22.5354 HGA2          1 oh24    
      24 HGA2        -0.0127     1.6089   -22.5356 HGA2          1 oh24    
      25 CG321       -0.0766    -0.1188   -23.8419 CG321         1 oh24    
      26 CG321        0.4202     0.6318   -25.0730 CG321         1 oh24    
      27 HGA2        -1.1887    -0.1703   -23.8595 HGA2          1 oh24    
      28 HGA2         0.3107    -1.1625   -23.8594 HGA2          1 oh24    
      29 HGA2         1.5326     0.6821   -25.0477 HGA2          1 oh24    
      30 HGA2         0.0315     1.6754   -25.0478 HGA2          1 oh24    
      31 CG321       -0.0334    -0.0538   -26.3589 CG321         1 oh24    
      32 CG321        0.4538     0.6841   -27.6048 CG321         1 oh24    
      33 HGA2        -1.1454    -0.1052   -26.3706 HGA2          1 oh24    
      34 HGA2         0.3540    -1.0974   -26.3705 HGA2          1 oh24    
      35 HGA2         1.5665     0.7366   -27.5783 HGA2          1 oh24    
      36 HGA2         0.0682     1.7287   -27.5776 HGA2          1 oh24    
      37 CG331       -0.0000     0.0000   -28.8926 CG331         1 oh24    
      38 HGA3        -1.1099    -0.0446   -28.9304 HGA3          1 oh24    
      39 HGA3         0.3926    -1.0395   -28.9311 HGA3          1 oh24    
      40 HGA3         0.3671     0.5546   -29.7811 HGA3          1 oh24    
      41 CG321        0.2039     0.3066   -12.5561 CG321         1 oh24    
      42 CG321       -0.2939    -0.4456   -11.3333 CG321         1 oh24    
      43 HGA2        -0.1841     1.3511   -12.5364 HGA2          1 oh24    
      44 HGA2         1.3170     0.3578   -12.5363 HGA2          1 oh24    
      45 HGA2         0.0950    -1.4887   -11.3541 HGA2          1 oh24    
      46 HGA2        -1.4061    -0.4954   -11.3542 HGA2          1 oh24    
      47 CG321        0.1611     0.2422   -10.0563 CG321         1 oh24    
      48 CG321       -0.3364    -0.5096    -8.8327 CG321         1 oh24    
      49 HGA2        -0.2272     1.2862   -10.0375 HGA2          1 oh24    
      50 HGA2         1.2739     0.2929   -10.0374 HGA2          1 oh24    
      51 HGA2         0.0522    -1.5532    -8.8543 HGA2          1 oh24    
      52 HGA2        -1.4489    -0.5599    -8.8544 HGA2          1 oh24    
      53 CG321        0.1179     0.1773    -7.5538 CG321         1 oh24    
      54 CG321       -0.3802    -0.5754    -6.3282 CG321         1 oh24    
      55 HGA2        -0.2704     1.2213    -7.5349 HGA2          1 oh24    
      56 HGA2         1.2307     0.2280    -7.5348 HGA2          1 oh24    
      57 HGA2         0.0083    -1.6192    -6.3520 HGA2          1 oh24    
      58 HGA2        -1.4928    -0.6259    -6.3522 HGA2          1 oh24    
      59 CG321        0.0726     0.1091    -5.0462 CG321         1 oh24    
      60 CG321       -0.4242    -0.6415    -3.8151 CG321         1 oh24    
      61 HGA2        -0.3159     1.1530    -5.0296 HGA2          1 oh24    
      62 HGA2         1.1853     0.1597    -5.0295 HGA2          1 oh24    
      63 HGA2        -0.0365    -1.6848    -3.8389 HGA2          1 oh24    
      64 HGA2        -1.5360    -0.6926    -3.8391 HGA2          1 oh24    
      65 CG321        0.0310     0.0465    -2.5323 CG321         1 oh24    
      66 CG321       -0.4571    -0.6910    -1.2828 CG321         1 oh24    
      67 HGA2        -0.3573     1.0906    -2.5243 HGA2          1 oh24    
      68 HGA2         1.1438     0.0973    -2.5242 HGA2          1 oh24    
      69 HGA2        -0.0714    -1.7353    -1.3006 HGA2          1 oh24    
      70 HGA2        -1.5692    -0.7442    -1.3007 HGA2          1 oh24    
      71 CG321        0.0000     0.0000     0.0000 CG321         1 oh24    
      72 OG311       -0.4831    -0.7299     1.1200 OG311         1 oh24    
      73 HGA2        -0.3981     1.0402     0.0221 HGA2          1 oh24    
      74 HGA2         1.1130     0.0403     0.0223 HGA2          1 oh24    
      75 HGP1        -0.1820    -0.2749     1.9101 HGP1          1 oh24    
@<TRIPOS>BOND
       1       66       65 1
       2       74       71 1
       3       71       66 1
       4       38       37 1
       5       46       42 1
       6       31       26 1
       7       25       20 1
       8       26       25 1
       9       47       42 1
      10       64       60 1
      11       30       26 1
      12       21       19 1
      13       75       72 1
      14       62       59 1
      15       51       48 1
      16       24       20 1
      17        6        2 1
      18       49       47 1
      19       59       54 1
      20       33       31 1
      21       29       26 1
      22       68       65 1
      23       48       47 1
      24       73       71 1
      25       60       59 1
      26       20       19 1
      27       52       48 1
      28       36       32 1
      29        4        1 1
      30       44       41 1
      31       40       37 1
      32        3        1 1
      33       34       31 1
      34       37       32 1
      35       55       53 1
      36       58       54 1
      37       45       42 1
      38       13        8 1
      39       42       41 1
      40       67       65 1
      41       17       14 1
      42       63       60 1
      43       14       13 1
      44        2        1 1
      45       11        8 1
      46       65       60 1
      47       57       54 1
      48       16       13 1
      49       22       19 1
      50       70       66 1
      51       28       25 1
      52       18       14 1
      53       15       13 1
      54       39       37 1
      55        7        2 1
      56       69       66 1
      57       41        1 1
      58       27       25 1
      59       50       47 1
      60       35       32 1
      61       61       59 1
      62       32       31 1
      63       43       41 1
      64        8        7 1
      65       10        7 1
      66       23       20 1
      67       19       14 1
      68       56       53 1
      69       72       71 1
      70       54       53 1
      71        9        7 1
      72       12        8 1
      73       53       48 1
      74        5        2 1
@<TRIPOS>SUBSTRUCTURE
       1 oh24            1 RESIDUE    0 **** ROOT      0
