@<TRIPOS>MOLECULE
oh24
75 74 1 0 1
SMALL
NO_CHARGES
@<TRIPOS>CRYSIN
    8.1357     8.4640    36.6912    90.0000    90.0000    90.0000  1  1
@<TRIPOS>ATOM
       1             -0.2508    -0.3807   -13.8323               1 oh24    
       2              0.2471     0.3715   -15.0551               1 oh24    
       3              0.1377    -1.4245   -13.8525               1 oh24    
       4             -1.3634    -0.4312   -13.8526               1 oh24    
       5              1.3597     0.4220   -15.0347               1 oh24    
       6             -0.1414     1.4153   -15.0348               1 oh24    
       7             -0.2081    -0.3165   -16.3307               1 oh24    
       8              0.2897     0.4357   -17.5535               1 oh24    
       9             -1.3207    -0.3670   -16.3510               1 oh24    
      10 10           0.1804    -1.3603   -16.3509 10            1 oh24    
      11 11           1.4024     0.4862   -17.5331 11            1 oh24    
      12 12          -0.0987     1.4795   -17.5332 12            1 oh24    
      13 13          -0.1652    -0.2521   -18.8304 13            1 oh24    
      14 14           0.3320     0.4992   -20.0549 14            1 oh24    
      15 15          -1.2783    -0.3033   -18.8502 15            1 oh24    
      16 16           0.2228    -1.2966   -18.8501 16            1 oh24    
      17 17           1.4452     0.5506   -20.0329 17            1 oh24    
      18 18          -0.0559     1.5440   -20.0330 18            1 oh24    
      19 19          -0.1216    -0.1865   -21.3336 19            1 oh24    
      20 20           0.3758     0.5650   -22.5594 20            1 oh24    
      21 21          -1.2349    -0.2379   -21.3520 21            1 oh24    
      22 22           0.2662    -1.2312   -21.3518 22            1 oh24    
      23 23           1.4884     0.6155   -22.5354 23            1 oh24    
      24 24          -0.0127     1.6089   -22.5356 24            1 oh24    
      25 25          -0.0766    -0.1188   -23.8419 25            1 oh24    
      26 26           0.4202     0.6318   -25.0730 26            1 oh24    
      27 27          -1.1887    -0.1703   -23.8595 27            1 oh24    
      28 28           0.3107    -1.1625   -23.8594 28            1 oh24    
      29 29           1.5326     0.6821   -25.0477 29            1 oh24    
      30 30           0.0315     1.6754   -25.0478 30            1 oh24    
      31 31          -0.0334    -0.0538   -26.3589 31            1 oh24    
      32 32           0.4538     0.6841   -27.6048 32            1 oh24    
      33 33          -1.1454    -0.1052   -26.3706 33            1 oh24    
      34 34           0.3540    -1.0974   -26.3705 34            1 oh24    
      35 35           1.5665     0.7366   -27.5783 35            1 oh24    
      36 36           0.0682     1.7287   -27.5776 36            1 oh24    
      37 37          -0.0000     0.0000   -28.8926 37            1 oh24    
      38 38          -1.1099    -0.0446   -28.9304 38            1 oh24    
      39 39           0.3926    -1.0395   -28.9311 39            1 oh24    
      40 40           0.3671     0.5546   -29.7811 40            1 oh24    
      41 41           0.2039     0.3066   -12.5561 41            1 oh24    
      42 42          -0.2939    -0.4456   -11.3333 42            1 oh24    
      43 43          -0.1841     1.3511   -12.5364 43            1 oh24    
      44 44           1.3170     0.3578   -12.5363 44            1 oh24    
      45 45           0.0950    -1.4887   -11.3541 45            1 oh24    
      46 46          -1.4061    -0.4954   -11.3542 46            1 oh24    
      47 47           0.1611     0.2422   -10.0563 47            1 oh24    
      48 48          -0.3364    -0.5096    -8.8327 48            1 oh24    
      49 49          -0.2272     1.2862   -10.0375 49            1 oh24    
      50 50           1.2739     0.2929   -10.0374 50            1 oh24    
      51 51           0.0522    -1.5532    -8.8543 51            1 oh24    
      52 52          -1.4489    -0.5599    -8.8544 52            1 oh24    
      53 53           0.1179     0.1773    -7.5538 53            1 oh24    
      54 54          -0.3802    -0.5754    -6.3282 54            1 oh24    
      55 55          -0.2704     1.2213    -7.5349 55            1 oh24    
      56 56           1.2307     0.2280    -7.5348 56            1 oh24    
      57 57           0.0083    -1.6192    -6.3520 57            1 oh24    
      58 58          -1.4928    -0.6259    -6.3522 58            1 oh24    
      59 59           0.0726     0.1091    -5.0462 59            1 oh24    
      60 60          -0.4242    -0.6415    -3.8151 60            1 oh24    
      61 61          -0.3159     1.1530    -5.0296 61            1 oh24    
      62 62           1.1853     0.1597    -5.0295 62            1 oh24    
      63 63          -0.0365    -1.6848    -3.8389 63            1 oh24    
      64 64          -1.5360    -0.6926    -3.8391 64            1 oh24    
      65 65           0.0310     0.0465    -2.5323 65            1 oh24    
      66 66          -0.4571    -0.6910    -1.2828 66            1 oh24    
      67 67          -0.3573     1.0906    -2.5243 67            1 oh24    
      68 68           1.1438     0.0973    -2.5242 68            1 oh24    
      69 69          -0.0714    -1.7353    -1.3006 69            1 oh24    
      70 70          -1.5692    -0.7442    -1.3007 70            1 oh24    
      71 71           0.0000     0.0000     0.0000 71            1 oh24    
      72 72          -0.4831    -0.7299     1.1200 72            1 oh24    
      73 73          -0.3981     1.0402     0.0221 73            1 oh24    
      74 74           1.1130     0.0403     0.0223 74            1 oh24    
      75 75          -0.1820    -0.2749     1.9101 75            1 oh24    
@<TRIPOS>BOND
       1       60       64 1
       2       72       75 1
       3       60       65 1
       4       15       13 1
       5        9        7 1
       6        2        1 1
       7       32       36 1
       8       14       13 1
       9       20       24 1
      10       45       42 1
      11       53       55 1
      12       38       37 1
      13        3        1 1
      14       18       14 1
      15       59       60 1
      16       42       41 1
      17       50       47 1
      18       39       37 1
      19       53       48 1
      20       20       25 1
      21        1        4 1
      22        1       41 1
      23       20       23 1
      24       48       47 1
      25       66       70 1
      26       52       48 1
      27       71       74 1
      28       19       22 1
      29       40       37 1
      30        8        7 1
      31       65       68 1
      32       31       34 1
      33       60       63 1
      34       19       14 1
      35       31       32 1
      36       51       48 1
      37       59       61 1
      38       49       47 1
      39       13        8 1
      40       53       56 1
      41       12        8 1
      42       43       41 1
      43       54       53 1
      44       16       13 1
      45       26       30 1
      46       47       42 1
      47       44       41 1
      48       54       59 1
      49        2        7 1
      50       25       26 1
      51       11        8 1
      52       46       42 1
      53       71       73 1
      54       65       66 1
      55       65       67 1
      56       54       58 1
      57       66       69 1
      58       19       21 1
      59       17       14 1
      60        2        5 1
      61       26       29 1
      62       25       27 1
      63       59       62 1
      64       66       71 1
      65       19       20 1
      66       25       28 1
      67       32       37 1
      68       10        7 1
      69       54       57 1
      70       32       35 1
      71        2        6 1
      72       31       33 1
      73       71       72 1
      74       26       31 1
@<TRIPOS>SUBSTRUCTURE
       1 oh24            1 RESIDUE    0 **** ROOT      0
