@<TRIPOS>MOLECULE
tip3p
3 2 1 0 1
SMALL
NO_CHARGES
@<TRIPOS>CRYSIN
    5.0000     6.3883     5.8448    90.0000    90.0000    90.0000  1  1
@<TRIPOS>ATOM
       1 O            0.0000     0.0000     0.0000 O             1 tip3p   
       2 H           -0.0000    -0.9312     0.2358 H             1 tip3p   
       3 H            0.0000     0.4571     0.8448 H             1 tip3p   
@<TRIPOS>BOND
       1        1        2 1
       2        1        3 1
@<TRIPOS>SUBSTRUCTURE
       1 tip3p           1 RESIDUE    0 **** ROOT      0
