@<TRIPOS>MOLECULE
oh18
57 56 1 0 1
SMALL
USER_CHARGES
@<TRIPOS>CRYSIN
    7.7475     7.8462    29.2140    90.0000    90.0000    90.0000  1  1
@<TRIPOS>ATOM
       1 CG321       -0.4875    -0.6911   -11.2065 CG321         1 oh18      -0.180000
       2 CG321        0.0064     0.0110   -12.4611 CG321         1 oh18      -0.180000
       3 HGA2        -0.1298    -1.7465   -11.2057 HGA2          1 oh18       0.090000
       4 HGA2        -1.6018    -0.7106   -11.2055 HGA2          1 oh18       0.090000
       5 HGA2         1.1207     0.0306   -12.4621 HGA2          1 oh18       0.090000
       6 HGA2        -0.3514     1.0665   -12.4619 HGA2          1 oh18       0.090000
       7 CG321       -0.4910    -0.6955   -13.7111 CG321         1 oh18      -0.180000
       8 CG321        0.0025     0.0059   -14.9663 CG321         1 oh18      -0.180000
       9 HGA2        -1.6051    -0.7149   -13.7087 HGA2          1 oh18       0.090000
      10 HGA2        -0.1331    -1.7508   -13.7089 HGA2          1 oh18       0.090000
      11 HGA2         1.1173     0.0261   -14.9667 HGA2          1 oh18       0.090000
      12 HGA2        -0.3548     1.0620   -14.9665 HGA2          1 oh18       0.090000
      13 CG321       -0.4950    -0.7009   -16.2177 CG321         1 oh18      -0.180000
      14 CG321       -0.0036    -0.0024   -17.4765 CG321         1 oh18      -0.180000
      15 HGA2        -1.6093    -0.7205   -16.2131 HGA2          1 oh18       0.090000
      16 HGA2        -0.1373    -1.7564   -16.2132 HGA2          1 oh18       0.090000
      17 HGA2         1.1113     0.0181   -17.4755 HGA2          1 oh18       0.090000
      18 HGA2        -0.3607     1.0540   -17.4753 HGA2          1 oh18       0.090000
      19 CG321       -0.4995    -0.7070   -18.7334 CG321         1 oh18      -0.180000
      20 CG321       -0.0076    -0.0077   -19.9952 CG321         1 oh18      -0.180000
      21 HGA2        -1.6141    -0.7269   -18.7266 HGA2          1 oh18       0.090000
      22 HGA2        -0.1420    -1.7628   -18.7267 HGA2          1 oh18       0.090000
      23 HGA2         1.1070     0.0141   -19.9887 HGA2          1 oh18       0.090000
      24 HGA2        -0.3634     1.0489   -19.9885 HGA2          1 oh18       0.090000
      25 CG321       -0.4930    -0.6990   -21.2659 CG321         1 oh18      -0.180000
      26 CG331        0.0000    -0.0000   -22.5299 CG331         1 oh18      -0.270000
      27 HGA2        -1.6079    -0.7213   -21.2594 HGA2          1 oh18       0.090000
      28 HGA2        -0.1387    -1.7559   -21.2587 HGA2          1 oh18       0.090000
      29 HGA3         1.1115     0.0139   -22.5499 HGA3          1 oh18       0.090000
      30 HGA3        -0.3618     1.0515   -22.5506 HGA3          1 oh18       0.090000
      31 HGA3        -0.3672    -0.5217   -23.4374 HGA3          1 oh18       0.090000
      32 CG321        0.0098     0.0155    -9.9565 CG321         1 oh18      -0.180000
      33 CG321       -0.4836    -0.6859    -8.7014 CG321         1 oh18      -0.180000
      34 HGA2        -0.3477     1.0712    -9.9596 HGA2          1 oh18       0.090000
      35 HGA2         1.1243     0.0353    -9.9597 HGA2          1 oh18       0.090000
      36 HGA2        -0.1260    -1.7416    -8.7019 HGA2          1 oh18       0.090000
      37 HGA2        -1.5980    -0.7057    -8.7018 HGA2          1 oh18       0.090000
      38 CG321        0.0139     0.0208    -7.4500 CG321         1 oh18      -0.180000
      39 CG321       -0.4772    -0.6772    -6.1920 CG321         1 oh18      -0.180000
      40 HGA2        -0.3435     1.0769    -7.4552 HGA2          1 oh18       0.090000
      41 HGA2         1.1285     0.0410    -7.4554 HGA2          1 oh18       0.090000
      42 HGA2        -0.1206    -1.7342    -6.1937 HGA2          1 oh18       0.090000
      43 HGA2        -1.5926    -0.6983    -6.1935 HGA2          1 oh18       0.090000
      44 CG321        0.0183     0.0267    -4.9356 CG321         1 oh18      -0.180000
      45 CG321       -0.4756    -0.6752    -3.6761 CG321         1 oh18      -0.180000
      46 HGA2        -0.3386     1.0834    -4.9403 HGA2          1 oh18       0.090000
      47 HGA2         1.1334     0.0475    -4.9405 HGA2          1 oh18       0.090000
      48 HGA2        -0.1178    -1.7307    -3.6875 HGA2          1 oh18       0.090000
      49 HGA2        -1.5898    -0.6948    -3.6873 HGA2          1 oh18       0.090000
      50 CG321        0.0114     0.0165    -2.4021 CG321         1 oh18      -0.181000
      51 CG321       -0.4858    -0.6902    -1.1430 CG321         1 oh18       0.051000
      52 HGA2        -0.3441     1.0717    -2.4010 HGA2          1 oh18       0.090000
      53 HGA2         1.1246     0.0381    -2.4011 HGA2          1 oh18       0.090000
      54 HGA2        -0.1179    -1.7417    -1.1394 HGA2          1 oh18       0.090000
      55 HGA2        -1.5998    -0.6988    -1.1393 HGA2          1 oh18       0.090000
      56 OG311        0.0000     0.0000     0.0000 OG311         1 oh18      -0.650000
      57 HGP1        -0.3278    -0.4660     0.7766 HGP1          1 oh18       0.420000
@<TRIPOS>BOND
       1       53       50 1
       2       16       13 1
       3       27       25 1
       4       38       33 1
       5       20       19 1
       6       33       32 1
       7       10        7 1
       8       28       25 1
       9       47       44 1
      10       21       19 1
      11        7        2 1
      12       49       45 1
      13        9        7 1
      14       54       51 1
      15        5        2 1
      16        4        1 1
      17       22       19 1
      18       44       39 1
      19       57       56 1
      20       48       45 1
      21       11        8 1
      22       41       38 1
      23       23       20 1
      24       29       26 1
      25       19       14 1
      26       39       38 1
      27       12        8 1
      28       50       45 1
      29       52       50 1
      30       31       26 1
      31       36       33 1
      32       26       25 1
      33       14       13 1
      34       15       13 1
      35       32        1 1
      36       13        8 1
      37       43       39 1
      38        8        7 1
      39        6        2 1
      40        2        1 1
      41       51       50 1
      42       45       44 1
      43       42       39 1
      44       24       20 1
      45       37       33 1
      46       35       32 1
      47       40       38 1
      48        3        1 1
      49       46       44 1
      50       18       14 1
      51       34       32 1
      52       17       14 1
      53       56       51 1
      54       55       51 1
      55       25       20 1
      56       30       26 1
@<TRIPOS>SUBSTRUCTURE
       1 oh18            1 RESIDUE    0 **** ROOT      0
