@<TRIPOS>MOLECULE
oh20
63 62 1 0 1
SMALL
USER_CHARGES
@<TRIPOS>CRYSIN
    7.7516     7.8481    31.7104    90.0000    90.0000    90.0000  1  1
@<TRIPOS>ATOM
       1 CG321       -0.0082    -0.0132   -12.4600 CG321         1 oh20      -0.180000
       2 CG321        0.4885     0.6863   -11.2069 CG321         1 oh20      -0.180000
       3 HGA2        -1.1233    -0.0291   -12.4618 HGA2          1 oh20       0.090000
       4 HGA2         0.3443    -1.0713   -12.4616 HGA2          1 oh20       0.090000
       5 HGA2         0.1359     1.7442   -11.2067 HGA2          1 oh20       0.090000
       6 HGA2         1.6035     0.7020   -11.2065 HGA2          1 oh20       0.090000
       7 CG321       -0.0114    -0.0174    -9.9568 CG321         1 oh20      -0.180000
       8 CG321        0.4849     0.6816    -8.7029 CG321         1 oh20      -0.180000
       9 HGA2         0.3417    -1.0746    -9.9601 HGA2          1 oh20       0.090000
      10 HGA2        -1.1259    -0.0324    -9.9602 HGA2          1 oh20       0.090000
      11 HGA2         0.1318     1.7389    -8.7032 HGA2          1 oh20       0.090000
      12 HGA2         1.5994     0.6967    -8.7031 HGA2          1 oh20       0.090000
      13 CG321       -0.0153    -0.0226    -7.4520 CG321         1 oh20      -0.180000
      14 CG321        0.4789     0.6736    -6.1932 CG321         1 oh20      -0.180000
      15 HGA2         0.3373    -1.0805    -7.4558 HGA2          1 oh20       0.090000
      16 HGA2        -1.1303    -0.0383    -7.4560 HGA2          1 oh20       0.090000
      17 HGA2         0.1266     1.7318    -6.1952 HGA2          1 oh20       0.090000
      18 HGA2         1.5942     0.6896    -6.1950 HGA2          1 oh20       0.090000
      19 CG321       -0.0191    -0.0276    -4.9372 CG321         1 oh20      -0.180000
      20 CG321        0.4781     0.6727    -3.6785 CG321         1 oh20      -0.180000
      21 HGA2         0.3334    -1.0856    -4.9424 HGA2          1 oh20       0.090000
      22 HGA2        -1.1342    -0.0434    -4.9426 HGA2          1 oh20       0.090000
      23 HGA2         0.1244     1.7291    -3.6894 HGA2          1 oh20       0.090000
      24 HGA2         1.5920     0.6869    -3.6893 HGA2          1 oh20       0.090000
      25 CG321       -0.0119    -0.0171    -2.4041 CG321         1 oh20      -0.181000
      26 CG321        0.4885     0.6877    -1.1463 CG321         1 oh20       0.051000
      27 HGA2         0.3388    -1.0742    -2.4021 HGA2          1 oh20       0.090000
      28 HGA2        -1.1255    -0.0343    -2.4022 HGA2          1 oh20       0.090000
      29 HGA2         0.1248     1.7404    -1.1414 HGA2          1 oh20       0.090000
      30 HGA2         1.6022     0.6912    -1.1413 HGA2          1 oh20       0.090000
      31 OG311        0.0000     0.0000     0.0000 OG311         1 oh20      -0.650000
      32 HGP1         0.3296     0.4642     0.7735 HGP1          1 oh20       0.420000
      33 CG321        0.4914     0.6901   -13.7093 CG321         1 oh20      -0.180000
      34 CG321       -0.0052    -0.0094   -14.9624 CG321         1 oh20      -0.180000
      35 HGA2         1.6065     0.7060   -13.7075 HGA2          1 oh20       0.090000
      36 HGA2         0.1390     1.7482   -13.7076 HGA2          1 oh20       0.090000
      37 HGA2        -1.1203    -0.0252   -14.9627 HGA2          1 oh20       0.090000
      38 HGA2         0.3473    -1.0674   -14.9626 HGA2          1 oh20       0.090000
      39 CG321        0.4946     0.6943   -16.2124 CG321         1 oh20      -0.180000
      40 CG321       -0.0017    -0.0047   -17.4664 CG321         1 oh20      -0.180000
      41 HGA2         1.6091     0.7093   -16.2091 HGA2          1 oh20       0.090000
      42 HGA2         0.1415     1.7515   -16.2092 HGA2          1 oh20       0.090000
      43 HGA2        -1.1167    -0.0205   -17.4667 HGA2          1 oh20       0.090000
      44 HGA2         0.3509    -1.0627   -17.4666 HGA2          1 oh20       0.090000
      45 CG321        0.4981     0.6988   -18.7178 CG321         1 oh20      -0.180000
      46 CG321        0.0041     0.0031   -19.9775 CG321         1 oh20      -0.180000
      47 HGA2         1.6131     0.7144   -18.7139 HGA2          1 oh20       0.090000
      48 HGA2         0.1455     1.7567   -18.7140 HGA2          1 oh20       0.090000
      49 HGA2        -1.1111    -0.0129   -19.9756 HGA2          1 oh20       0.090000
      50 HGA2         0.3565    -1.0551   -19.9755 HGA2          1 oh20       0.090000
      51 CG321        0.5027     0.7049   -21.2329 CG321         1 oh20      -0.180000
      52 CG321        0.0076     0.0077   -22.4951 CG321         1 oh20      -0.180000
      53 HGA2         1.6174     0.7203   -21.2267 HGA2          1 oh20       0.090000
      54 HGA2         0.1498     1.7625   -21.2269 HGA2          1 oh20       0.090000
      55 HGA2        -1.1070    -0.0093   -22.4874 HGA2          1 oh20       0.090000
      56 HGA2         0.3585    -1.0510   -22.4878 HGA2          1 oh20       0.090000
      57 CG321        0.4960     0.6969   -23.7657 CG321         1 oh20      -0.180000
      58 CG331       -0.0000     0.0000   -25.0293 CG331         1 oh20      -0.270000
      59 HGA2         1.6107     0.7139   -23.7597 HGA2          1 oh20       0.090000
      60 HGA2         0.1457     1.7546   -23.7585 HGA2          1 oh20       0.090000
      61 HGA3        -1.1123    -0.0102   -25.0486 HGA3          1 oh20       0.090000
      62 HGA3         0.3568    -1.0537   -25.0498 HGA3          1 oh20       0.090000
      63 HGA3         0.3690     0.5195   -25.9369 HGA3          1 oh20       0.090000
@<TRIPOS>BOND
       1       31       26 1
       2       55       52 1
       3       48       45 1
       4       29       26 1
       5        5        2 1
       6       60       57 1
       7       62       58 1
       8        6        2 1
       9       42       39 1
      10       39       34 1
      11       18       14 1
      12       38       34 1
      13       51       46 1
      14       25       20 1
      15        8        7 1
      16       59       57 1
      17       41       39 1
      18       52       51 1
      19       11        8 1
      20        7        2 1
      21       57       52 1
      22       58       57 1
      23       21       19 1
      24       37       34 1
      25       24       20 1
      26       35       33 1
      27       10        7 1
      28       50       46 1
      29       45       40 1
      30       16       13 1
      31       28       25 1
      32       47       45 1
      33       17       14 1
      34        9        7 1
      35       32       31 1
      36       54       51 1
      37       22       19 1
      38       30       26 1
      39       63       58 1
      40       15       13 1
      41       26       25 1
      42       27       25 1
      43       14       13 1
      44       13        8 1
      45       36       33 1
      46        3        1 1
      47       23       20 1
      48       19       14 1
      49       56       52 1
      50       44       40 1
      51       53       51 1
      52       43       40 1
      53       61       58 1
      54       33        1 1
      55        2        1 1
      56       40       39 1
      57       34       33 1
      58       20       19 1
      59       46       45 1
      60       49       46 1
      61        4        1 1
      62       12        8 1
@<TRIPOS>SUBSTRUCTURE
       1 oh20            1 RESIDUE    0 **** ROOT      0
