@<TRIPOS>MOLECULE
ecer2
105 104 1 0 1
SMALL
NO_CHARGES
@<TRIPOS>CRYSIN
    8.6665    13.7016    49.1603    90.0000    90.0000    90.0000  1  1
@<TRIPOS>ATOM
       1 NH1          0.0000     0.0000     0.0000 NH1           1 ecer2   
       2 HN1          0.7020     0.7230     0.0616 HN1           1 ecer2   
       3 CLN         -0.5761    -0.2436    -1.2374 CLN           1 ecer2   
       4 OBL         -1.3832    -1.1500    -1.4335 OBL           1 ecer2   
       5 CTL2        -0.2722     0.7469    -2.3957 CTL2          1 ecer2   
       6 HAL2         0.5862     1.3869    -2.1113 HAL2          1 ecer2   
       7 HAL2        -1.1485     1.4100    -2.5047 HAL2          1 ecer2   
       8 CTL2         0.0133     0.1319    -3.8321 CTL2          1 ecer2   
       9 HAL2         1.0738    -0.2065    -3.8705 HAL2          1 ecer2   
      10 HAL2        -0.6202    -0.7738    -3.9866 HAL2          1 ecer2   
      11 CTL2        -0.2760     1.0935    -5.0462 CTL2          1 ecer2   
      12 HAL2        -1.3823     1.1784    -5.1288 HAL2          1 ecer2   
      13 HAL2         0.1141     2.1079    -4.8109 HAL2          1 ecer2   
      14 CTL2         0.2931     0.7038    -6.4611 CTL2          1 ecer2   
      15 HAL2         1.3914     0.8763    -6.4387 HAL2          1 ecer2   
      16 HAL2         0.1324    -0.3827    -6.6394 HAL2          1 ecer2   
      17 CTL2        -0.3194     1.4772    -7.6874 CTL2          1 ecer2   
      18 HAL2        -1.3467     1.0802    -7.8541 HAL2          1 ecer2   
      19 HAL2        -0.4204     2.5531    -7.4225 HAL2          1 ecer2   
      20 CTL2         0.4696     1.4153    -9.0441 CTL2          1 ecer2   
      21 HAL2         1.4161     1.9830    -8.9058 HAL2          1 ecer2   
      22 HAL2         0.7428     0.3601    -9.2618 HAL2          1 ecer2   
      23 CTL2        -0.2751     1.9832   -10.3032 CTL2          1 ecer2   
      24 HAL2        -1.1062     1.2866   -10.5538 HAL2          1 ecer2   
      25 HAL2        -0.7326     2.9631   -10.0425 HAL2          1 ecer2   
      26 CTL2         0.5983     2.2044   -11.5827 CTL2          1 ecer2   
      27 HAL2         1.3391     3.0026   -11.3557 HAL2          1 ecer2   
      28 HAL2         1.1681     1.2757   -11.8055 HAL2          1 ecer2   
      29 CTL2        -0.1771     2.6070   -12.8815 CTL2          1 ecer2   
      30 HAL2        -0.8068     1.7446   -13.1951 HAL2          1 ecer2   
      31 HAL2        -0.8615     3.4524   -12.6489 HAL2          1 ecer2   
      32 CTL2         0.7128     3.0398   -14.0870 CTL2          1 ecer2   
      33 HAL2         1.2676     3.9583   -13.7940 HAL2          1 ecer2   
      34 HAL2         1.4632     2.2458   -14.2919 HAL2          1 ecer2   
      35 CTL2        -0.0459     3.3323   -15.4150 CTL2          1 ecer2   
      36 HAL2        -0.5146     2.3882   -15.7741 HAL2          1 ecer2   
      37 HAL2        -0.8663     4.0583   -15.2168 HAL2          1 ecer2   
      38 CTL2         0.8373     3.9127   -16.5579 CTL2          1 ecer2   
      39 HAL2         1.2558     4.8851   -16.2156 HAL2          1 ecer2   
      40 HAL2         1.6936     3.2257   -16.7407 HAL2          1 ecer2   
      41 CTL2         0.1047     4.1407   -17.9053 CTL2          1 ecer2   
      42 HAL2        -0.2568     3.1630   -18.2881 HAL2          1 ecer2   
      43 HAL2        -0.7831     4.7859   -17.7343 HAL2          1 ecer2   
      44 CTL2         0.9805     4.8039   -18.9946 CTL2          1 ecer2   
      45 HAL2         1.3245     5.8001   -18.6255 HAL2          1 ecer2   
      46 HAL2         1.8932     4.1830   -19.1608 HAL2          1 ecer2   
      47 CTL3         0.2715     5.0017   -20.3476 CTL3          1 ecer2   
      48 HAL3        -0.0333     4.0270   -20.7820 HAL3          1 ecer2   
      49 HAL3        -0.6304     5.6392   -20.2352 HAL3          1 ecer2   
      50 HAL3         0.9494     5.4992   -21.0748 HAL3          1 ecer2   
      51 CTL1        -0.3690    -0.6666     1.3136 CTL1          1 ecer2   
      52 HAL1        -1.4658    -0.5072     1.4514 HAL1          1 ecer2   
      53 CTL2        -0.1170    -2.2203     1.1957 CTL2          1 ecer2   
      54 HAL2         0.5732    -2.4543     0.3581 HAL2          1 ecer2   
      55 HAL2         0.3366    -2.6337     2.1215 HAL2          1 ecer2   
      56 OHL         -1.3474    -2.9015     0.9614 OHL           1 ecer2   
      57 HOL         -1.6645    -2.5818     0.1027 HOL           1 ecer2   
      58 CTL1         0.3903     0.0511     2.4959 CTL1          1 ecer2   
      59 HAL1         0.3793     1.1480     2.3043 HAL1          1 ecer2   
      60 OHL          1.7621    -0.3445     2.5416 OHL           1 ecer2   
      61 HOL          1.7773    -1.2099     2.9586 HOL           1 ecer2   
      62 CEL1        -0.3495    -0.1389     3.8523 CEL1          1 ecer2   
      63 HEL1        -1.4256     0.0865     3.8319 HEL1          1 ecer2   
      64 CEL1         0.2006    -0.4835     5.0582 CEL1          1 ecer2   
      65 HEL1         1.2870    -0.6445     5.1401 HEL1          1 ecer2   
      66 CTL2        -0.4983    -0.5749     6.4167 CTL2          1 ecer2   
      67 HAL2        -1.3067     0.1883     6.4755 HAL2          1 ecer2   
      68 HAL2        -0.9955    -1.5666     6.5063 HAL2          1 ecer2   
      69 CTL2         0.3858    -0.3782     7.7032 CTL2          1 ecer2   
      70 HAL2         1.1831    -1.1524     7.6942 HAL2          1 ecer2   
      71 HAL2         0.8849     0.6126     7.6377 HAL2          1 ecer2   
      72 CTL2        -0.3594    -0.4564     9.0842 CTL2          1 ecer2   
      73 HAL2        -1.1223     0.3544     9.1114 HAL2          1 ecer2   
      74 HAL2        -0.9046    -1.4249     9.1456 HAL2          1 ecer2   
      75 CTL2         0.5269    -0.3245    10.3744 CTL2          1 ecer2   
      76 HAL2         1.2481    -1.1721    10.3925 HAL2          1 ecer2   
      77 HAL2         1.1184     0.6146    10.3007 HAL2          1 ecer2   
      78 CTL2        -0.2343    -0.3028    11.7453 CTL2          1 ecer2   
      79 HAL2        -0.9484     0.5484    11.7353 HAL2          1 ecer2   
      80 HAL2        -0.8291    -1.2368    11.8413 HAL2          1 ecer2   
      81 CTL2         0.6586    -0.1636    13.0247 CTL2          1 ecer2   
      82 HAL2         1.3626    -1.0279    13.0652 HAL2          1 ecer2   
      83 HAL2         1.2760     0.7603    12.9246 HAL2          1 ecer2   
      84 CTL2        -0.0980    -0.0884    14.3937 CTL2          1 ecer2   
      85 HAL2        -0.8122     0.7612    14.3557 HAL2          1 ecer2   
      86 HAL2        -0.6890    -1.0190    14.5268 HAL2          1 ecer2   
      87 CTL2         0.8104     0.1013    15.6465 CTL2          1 ecer2   
      88 HAL2         1.5295    -0.7473    15.7031 HAL2          1 ecer2   
      89 HAL2         1.4030     1.0342    15.5134 HAL2          1 ecer2   
      90 CTL2         0.0707     0.1968    17.0154 CTL2          1 ecer2   
      91 HAL2        -0.6741     1.0225    16.9629 HAL2          1 ecer2   
      92 HAL2        -0.4893    -0.7498    17.1883 HAL2          1 ecer2   
      93 CTL2         0.9955     0.4555    18.2358 CTL2          1 ecer2   
      94 HAL2         1.7475    -0.3595    18.2996 HAL2          1 ecer2   
      95 HAL2         1.5441     1.4065    18.0678 HAL2          1 ecer2   
      96 CTL2         0.2718     0.5523    19.6057 CTL2          1 ecer2   
      97 HAL2        -0.5053     1.3481    19.5562 HAL2          1 ecer2   
      98 HAL2        -0.2509    -0.4082    19.8158 HAL2          1 ecer2   
      99 CTL2         1.2081     0.8708    20.7957 CTL2          1 ecer2   
     100 HAL2         2.0020     0.0930    20.8491 HAL2          1 ecer2   
     101 HAL2         1.7111     1.8440    20.6018 HAL2          1 ecer2   
     102 CTL3         0.4930     0.9580    22.2422 CTL3          1 ecer2   
     103 HAL3         1.1973     1.2153    23.0855 HAL3          1 ecer2   
     104 HAL3        -0.3211     1.7341    22.3108 HAL3          1 ecer2   
     105 HAL3        -0.0000     0.0001    22.5744 HAL3          1 ecer2   
@<TRIPOS>BOND
       1       75       77 1
       2        8       10 1
       3       66       69 1
       4       78       81 1
       5       11       14 1
       6       26       27 1
       7       93       94 1
       8       29       32 1
       9       96       99 1
      10       75       78 1
      11        8       11 1
      12       45       44 1
      13       43       41 1
      14       62       63 1
      15       32       33 1
      16       99      100 1
      17       81       84 1
      18       14       17 1
      19       20       21 1
      20       87       88 1
      21        5        8 1
      22       93       95 1
      23       26       28 1
      24       72       74 1
      25       64       65 1
      26       46       44 1
      27       20       22 1
      28       87       89 1
      29       53       56 1
      30       58       60 1
      31       11       13 1
      32       78       80 1
      33       93       96 1
      34       26       29 1
      35       29       31 1
      36       96       98 1
      37       47       44 1
      38       58       59 1
      39       72       75 1
      40        2        1 1
      41       53       55 1
      42       66       68 1
      43       41       42 1
      44       38       35 1
      45       62       64 1
      46       90       91 1
      47       23       24 1
      48       20       23 1
      49       87       90 1
      50       69       70 1
      51       47       48 1
      52       84       85 1
      53       17       18 1
      54       32       34 1
      55       99      101 1
      56       69       71 1
      57       47       49 1
      58       90       93 1
      59       23       26 1
      60       47       50 1
      61       69       72 1
      62       51        1 1
      63       38       40 1
      64       37       35 1
      65       66       67 1
      66       81       82 1
      67       14       15 1
      68       11       12 1
      69       78       79 1
      70      103      102 1
      71       56       57 1
      72       32       35 1
      73       99      102 1
      74       72       73 1
      75       58       51 1
      76        5        7 1
      77       81       83 1
      78       14       16 1
      79        3        5 1
      80       90       92 1
      81       23       25 1
      82      104      102 1
      83       60       61 1
      84       29       30 1
      85       96       97 1
      86       75       76 1
      87        8        9 1
      88        3        1 1
      89       64       66 1
      90       53       54 1
      91        3        4 1
      92      105      102 1
      93       38       39 1
      94        5        6 1
      95       44       41 1
      96       84       87 1
      97       52       51 1
      98       17       20 1
      99       36       35 1
     100       38       41 1
     101       84       86 1
     102       17       19 1
     103       58       62 1
     104       53       51 1
@<TRIPOS>SUBSTRUCTURE
       1 ecer2           1 RESIDUE    0 **** ROOT      0
