@<TRIPOS>MOLECULE
ecer2
105 104 1 0 1
SMALL
NO_CHARGES
@<TRIPOS>CRYSIN
   10.9733    13.0119    49.1603    90.0000    90.0000    90.0000  1  1
@<TRIPOS>ATOM
       1 NH1          0.0000     0.0000     0.0000 NH1           1 ecer2   
       2 HN1          0.9255     0.3987     0.0616 HN1           1 ecer2   
       3 CLN         -0.6254    -0.0042    -1.2374 CLN           1 ecer2   
       4 OBL         -1.7184    -0.5321    -1.4335 OBL           1 ecer2   
       5 CTL2         0.0348     0.7942    -2.3957 CTL2          1 ecer2   
       6 HAL2         1.0730     1.0564    -2.1113 HAL2          1 ecer2   
       7 HAL2        -0.5204     1.7425    -2.5047 HAL2          1 ecer2   
       8 CTL2         0.0629     0.1167    -3.8321 CTL2          1 ecer2   
       9 HAL2         0.9127    -0.6023    -3.8705 HAL2          1 ecer2   
      10 HAL2        -0.8694    -0.4770    -3.9866 HAL2          1 ecer2   
      11 CTL2         0.1642     1.1157    -5.0462 CTL2          1 ecer2   
      12 HAL2        -0.8251     1.6182    -5.1288 HAL2          1 ecer2   
      13 HAL2         0.9133     1.9032    -4.8109 HAL2          1 ecer2   
      14 CTL2         0.5404     0.5377    -6.4611 CTL2          1 ecer2   
      15 HAL2         1.6210     0.2762    -6.4387 HAL2          1 ecer2   
      16 HAL2        -0.0244    -0.4042    -6.6394 HAL2          1 ecer2   
      17 CTL2         0.2712     1.4868    -7.6874 CTL2          1 ecer2   
      18 HAL2        -0.8299     1.5139    -7.8541 HAL2          1 ecer2   
      19 HAL2         0.5902     2.5193    -7.4224 HAL2          1 ecer2   
      20 CTL2         0.9762     1.1273    -9.0441 CTL2          1 ecer2   
      21 HAL2         2.0680     1.2889    -8.9058 HAL2          1 ecer2   
      22 HAL2         0.8241     0.0479    -9.2618 HAL2          1 ecer2   
      23 CTL2         0.5059     1.9372   -10.3032 CTL2          1 ecer2   
      24 HAL2        -0.5286     1.6124   -10.5538 HAL2          1 ecer2   
      25 HAL2         0.4590     3.0177   -10.0425 HAL2          1 ecer2   
      26 CTL2         1.3974     1.8068   -11.5827 CTL2          1 ecer2   
      27 HAL2         2.3876     2.2601   -11.3557 HAL2          1 ecer2   
      28 HAL2         1.5679     0.7307   -11.8055 HAL2          1 ecer2   
      29 CTL2         0.8356     2.4758   -12.8814 CTL2          1 ecer2   
      30 HAL2        -0.0765     1.9207   -13.1951 HAL2          1 ecer2   
      31 HAL2         0.5274     3.5190   -12.6489 HAL2          1 ecer2   
      32 CTL2         1.8234     2.5345   -14.0870 CTL2          1 ecer2   
      33 HAL2         2.6879     3.1702   -13.7940 HAL2          1 ecer2   
      34 HAL2         2.2122     1.5136   -14.2919 HAL2          1 ecer2   
      35 CTL2         1.2347     3.0955   -15.4149 CTL2          1 ecer2   
      36 HAL2         0.4400     2.4031   -15.7741 HAL2          1 ecer2   
      37 HAL2         0.7552     4.0805   -15.2168 HAL2          1 ecer2   
      38 CTL2         2.2730     3.2931   -16.5579 CTL2          1 ecer2   
      39 HAL2         3.0321     4.0308   -16.2156 HAL2          1 ecer2   
      40 HAL2         2.8005     2.3304   -16.7406 HAL2          1 ecer2   
      41 CTL2         1.6836     3.7844   -17.9053 CTL2          1 ecer2   
      42 HAL2         0.9751     3.0200   -18.2881 HAL2          1 ecer2   
      43 HAL2         1.1110     4.7207   -17.7343 HAL2          1 ecer2   
      44 CTL2         2.7468     4.0614   -18.9945 CTL2          1 ecer2   
      45 HAL2         3.4464     4.8496   -18.6255 HAL2          1 ecer2   
      46 HAL2         3.3518     3.1381   -19.1607 HAL2          1 ecer2   
      47 CTL3         2.1677     4.5158   -20.3476 CTL3          1 ecer2   
      48 HAL3         1.5126     3.7323   -20.7820 HAL3          1 ecer2   
      49 HAL3         1.5790     5.4503   -20.2351 HAL3          1 ecer2   
      50 HAL3         2.9845     4.7155   -21.0748 HAL3          1 ecer2   
      51 CTL1        -0.5963    -0.4743     1.3136 CTL1          1 ecer2   
      52 HAL1        -1.5482     0.0933     1.4514 HAL1          1 ecer2   
      53 CTL2        -0.9591    -2.0059     1.1957 CTL2          1 ecer2   
      54 HAL2        -0.4112    -2.4866     0.3581 HAL2          1 ecer2   
      55 HAL2        -0.6985    -2.5616     2.1215 HAL2          1 ecer2   
      56 OHL         -2.3566    -2.1635     0.9614 OHL           1 ecer2   
      57 HOL         -2.5269    -1.7467     0.1027 HOL           1 ecer2   
      58 CTL1         0.3801    -0.1024     2.4959 CTL1          1 ecer2   
      59 HAL1         0.7903     0.9150     2.3043 HAL1          1 ecer2   
      60 OHL          1.4955    -0.9935     2.5416 OHL           1 ecer2   
      61 HOL          1.1778    -1.7987     2.9586 HOL           1 ecer2   
      62 CEL1        -0.3761     0.0056     3.8523 CEL1          1 ecer2   
      63 HEL1        -1.2836     0.6262     3.8319 HEL1          1 ecer2   
      64 CEL1        -0.0000    -0.5234     5.0582 CEL1          1 ecer2   
      65 HEL1         0.9417    -1.0885     5.1401 HEL1          1 ecer2   
      66 CTL2        -0.6806    -0.3401     6.4167 CTL2          1 ecer2   
      67 HAL2        -1.1347     0.6747     6.4755 HAL2          1 ecer2   
      68 HAL2        -1.5199    -1.0655     6.5063 HAL2          1 ecer2   
      69 CTL2         0.2114    -0.4972     7.7032 CTL2          1 ecer2   
      70 HAL2         0.6511    -1.5178     7.6942 HAL2          1 ecer2   
      71 HAL2         1.0521     0.2267     7.6377 HAL2          1 ecer2   
      72 CTL2        -0.5069    -0.2838     9.0842 CTL2          1 ecer2   
      73 HAL2        -0.9008     0.7575     9.1114 HAL2          1 ecer2   
      74 HAL2        -1.3816    -0.9694     9.1456 HAL2          1 ecer2   
      75 CTL2         0.3623    -0.5017    10.3744 CTL2          1 ecer2   
      76 HAL2         0.7035    -1.5610    10.3925 HAL2          1 ecer2   
      77 HAL2         1.2686     0.1390    10.3007 HAL2          1 ecer2   
      78 CTL2        -0.3325    -0.1899    11.7453 CTL2          1 ecer2   
      79 HAL2        -0.6658     0.8700    11.7353 HAL2          1 ecer2   
      80 HAL2        -1.2398    -0.8247    11.8413 HAL2          1 ecer2   
      81 CTL2         0.5456    -0.4035    13.0247 CTL2          1 ecer2   
      82 HAL2         0.8646    -1.4717    13.0652 HAL2          1 ecer2   
      83 HAL2         1.4700     0.2131    12.9246 HAL2          1 ecer2   
      84 CTL2        -0.1244    -0.0441    14.3937 CTL2          1 ecer2   
      85 HAL2        -0.4585     1.0143    14.3557 HAL2          1 ecer2   
      86 HAL2        -1.0270    -0.6772    14.5268 HAL2          1 ecer2   
      87 CTL2         0.7874    -0.2171    15.6465 CTL2          1 ecer2   
      88 HAL2         1.1263    -1.2764    15.7031 HAL2          1 ecer2   
      89 HAL2         1.6922     0.4175    15.5134 HAL2          1 ecer2   
      90 CTL2         0.1408     0.1546    17.0154 CTL2          1 ecer2   
      91 HAL2        -0.2308     1.2027    16.9630 HAL2          1 ecer2   
      92 HAL2        -0.7393    -0.5051    17.1883 HAL2          1 ecer2   
      93 CTL2         1.0940     0.0392    18.2358 CTL2          1 ecer2   
      94 HAL2         1.4763    -1.0018    18.2996 HAL2          1 ecer2   
      95 HAL2         1.9652     0.7072    18.0678 HAL2          1 ecer2   
      96 CTL2         0.4627     0.4059    19.6057 CTL2          1 ecer2   
      97 HAL2         0.0499     1.4387    19.5562 HAL2          1 ecer2   
      98 HAL2        -0.3882    -0.2810    19.8158 HAL2          1 ecer2   
      99 CTL2         1.4496     0.3412    20.7957 CTL2          1 ecer2   
     100 HAL2         1.8847    -0.6814    20.8491 HAL2          1 ecer2   
     101 HAL2         2.2871     1.0474    20.6018 HAL2          1 ecer2   
     102 CTL3         0.8225     0.6958    22.2422 CTL3          1 ecer2   
     103 HAL3         1.5716     0.6635    23.0855 HAL3          1 ecer2   
     104 HAL3         0.3680     1.7247    22.3109 HAL3          1 ecer2   
     105 HAL3         0.0000    -0.0000    22.5744 HAL3          1 ecer2   
@<TRIPOS>BOND
       1        3        1 1
       2       75       77 1
       3        8       10 1
       4       66       69 1
       5       78       81 1
       6       11       14 1
       7       26       27 1
       8       93       94 1
       9       96       99 1
      10       29       32 1
      11       75       78 1
      12        8       11 1
      13       45       44 1
      14       43       41 1
      15       62       63 1
      16        2        1 1
      17       87       88 1
      18       99      100 1
      19       32       33 1
      20       14       17 1
      21       20       21 1
      22       81       84 1
      23        5        8 1
      24       26       28 1
      25       93       95 1
      26       72       74 1
      27       64       65 1
      28       51        1 1
      29       46       44 1
      30       20       22 1
      31       87       89 1
      32       53       56 1
      33       58       60 1
      34       78       80 1
      35       11       13 1
      36       26       29 1
      37       93       96 1
      38       96       98 1
      39       29       31 1
      40       47       44 1
      41       58       59 1
      42       72       75 1
      43       53       55 1
      44       66       68 1
      45       41       42 1
      46       62       64 1
      47       38       35 1
      48       23       24 1
      49       90       91 1
      50       87       90 1
      51       20       23 1
      52       69       70 1
      53       47       48 1
      54       84       85 1
      55       17       18 1
      56       99      101 1
      57       32       34 1
      58       69       71 1
      59       47       49 1
      60       23       26 1
      61       90       93 1
      62       47       50 1
      63       69       72 1
      64       38       40 1
      65       37       35 1
      66       14       15 1
      67       81       82 1
      68       66       67 1
      69       11       12 1
      70       78       79 1
      71      103      102 1
      72       56       57 1
      73       99      102 1
      74       32       35 1
      75       72       73 1
      76       58       51 1
      77        5        7 1
      78       81       83 1
      79       14       16 1
      80        3        5 1
      81       23       25 1
      82       90       92 1
      83      104      102 1
      84       60       61 1
      85       29       30 1
      86       96       97 1
      87       75       76 1
      88        8        9 1
      89       64       66 1
      90       53       54 1
      91        3        4 1
      92      105      102 1
      93       38       39 1
      94        5        6 1
      95       44       41 1
      96       84       87 1
      97       52       51 1
      98       17       20 1
      99       36       35 1
     100       38       41 1
     101       84       86 1
     102       17       19 1
     103       58       62 1
     104       53       51 1
@<TRIPOS>SUBSTRUCTURE
       1 ecer2           1 RESIDUE    0 **** ROOT      0
