@<TRIPOS>MOLECULE
ecer2
105 104 1 0 1
SMALL
NO_CHARGES
@<TRIPOS>CRYSIN
    8.6665    13.7016    49.1603    90.0000    90.0000    90.0000  1  1
@<TRIPOS>ATOM
       1 NH1         -0.2715    -5.0017    20.3476 NH1           1 ecer2   
       2 HN1          0.4306    -4.2788    20.4092 HN1           1 ecer2   
       3 CLN         -0.8475    -5.2453    19.1102 CLN           1 ecer2   
       4 OBL         -1.6547    -6.1518    18.9141 OBL           1 ecer2   
       5 CTL2        -0.5436    -4.2549    17.9519 CTL2          1 ecer2   
       6 HAL2         0.3147    -3.6148    18.2363 HAL2          1 ecer2   
       7 HAL2        -1.4199    -3.5917    17.8429 HAL2          1 ecer2   
       8 CTL2        -0.2581    -4.8698    16.5155 CTL2          1 ecer2   
       9 HAL2         0.8023    -5.2082    16.4771 HAL2          1 ecer2   
      10 HAL2        -0.8917    -5.7756    16.3609 HAL2          1 ecer2   
      11 CTL2        -0.5474    -3.9083    15.3014 CTL2          1 ecer2   
      12 HAL2        -1.6537    -3.8233    15.2188 HAL2          1 ecer2   
      13 HAL2        -0.1573    -2.8939    15.5367 HAL2          1 ecer2   
      14 CTL2         0.0216    -4.2980    13.8865 CTL2          1 ecer2   
      15 HAL2         1.1199    -4.1254    13.9089 HAL2          1 ecer2   
      16 HAL2        -0.1391    -5.3844    13.7082 HAL2          1 ecer2   
      17 CTL2        -0.5908    -3.5245    12.6602 CTL2          1 ecer2   
      18 HAL2        -1.6182    -3.9215    12.4935 HAL2          1 ecer2   
      19 HAL2        -0.6918    -2.4487    12.9251 HAL2          1 ecer2   
      20 CTL2         0.1982    -3.5864    11.3035 CTL2          1 ecer2   
      21 HAL2         1.1446    -3.0187    11.4417 HAL2          1 ecer2   
      22 HAL2         0.4713    -4.6417    11.0858 HAL2          1 ecer2   
      23 CTL2        -0.5466    -3.0186    10.0444 CTL2          1 ecer2   
      24 HAL2        -1.3777    -3.7151     9.7938 HAL2          1 ecer2   
      25 HAL2        -1.0041    -2.0386    10.3050 HAL2          1 ecer2   
      26 CTL2         0.3268    -2.7974     8.7649 CTL2          1 ecer2   
      27 HAL2         1.0676    -1.9992     8.9919 HAL2          1 ecer2   
      28 HAL2         0.8967    -3.7260     8.5421 HAL2          1 ecer2   
      29 CTL2        -0.4485    -2.3948     7.4661 CTL2          1 ecer2   
      30 HAL2        -1.0782    -3.2571     7.1525 HAL2          1 ecer2   
      31 HAL2        -1.1330    -1.5494     7.6986 HAL2          1 ecer2   
      32 CTL2         0.4414    -1.9619     6.2605 CTL2          1 ecer2   
      33 HAL2         0.9961    -1.0435     6.5536 HAL2          1 ecer2   
      34 HAL2         1.1918    -2.7559     6.0557 HAL2          1 ecer2   
      35 CTL2        -0.3174    -1.6695     4.9326 CTL2          1 ecer2   
      36 HAL2        -0.7860    -2.6136     4.5735 HAL2          1 ecer2   
      37 HAL2        -1.1378    -0.9434     5.1308 HAL2          1 ecer2   
      38 CTL2         0.5659    -1.0890     3.7897 CTL2          1 ecer2   
      39 HAL2         0.9843    -0.1167     4.1320 HAL2          1 ecer2   
      40 HAL2         1.4221    -1.7760     3.6069 HAL2          1 ecer2   
      41 CTL2        -0.1668    -0.8611     2.4423 CTL2          1 ecer2   
      42 HAL2        -0.5282    -1.8387     2.0595 HAL2          1 ecer2   
      43 HAL2        -1.0545    -0.2158     2.6133 HAL2          1 ecer2   
      44 CTL2         0.7091    -0.1978     1.3530 CTL2          1 ecer2   
      45 HAL2         1.0531     0.7984     1.7221 HAL2          1 ecer2   
      46 HAL2         1.6217    -0.8187     1.1868 HAL2          1 ecer2   
      47 CTL3         0.0000     0.0000     0.0000 CTL3          1 ecer2   
      48 HAL3        -0.3048    -0.9748    -0.4344 HAL3          1 ecer2   
      49 HAL3        -0.9019     0.6375     0.1124 HAL3          1 ecer2   
      50 HAL3         0.6780     0.4974    -0.7272 HAL3          1 ecer2   
      51 CTL1        -0.6405    -5.6684    21.6612 CTL1          1 ecer2   
      52 HAL1        -1.7372    -5.5090    21.7990 HAL1          1 ecer2   
      53 CTL2        -0.3885    -7.2221    21.5433 CTL2          1 ecer2   
      54 HAL2         0.3018    -7.4560    20.7057 HAL2          1 ecer2   
      55 HAL2         0.0652    -7.6354    22.4691 HAL2          1 ecer2   
      56 OHL         -1.6189    -7.9032    21.3090 OHL           1 ecer2   
      57 HOL         -1.9360    -7.5836    20.4503 HOL           1 ecer2   
      58 CTL1         0.1188    -4.9506    22.8435 CTL1          1 ecer2   
      59 HAL1         0.1079    -3.8537    22.6519 HAL1          1 ecer2   
      60 OHL          1.4906    -5.3462    22.8892 OHL           1 ecer2   
      61 HOL          1.5058    -6.2117    23.3062 HOL           1 ecer2   
      62 CEL1        -0.6210    -5.1407    24.1999 CEL1          1 ecer2   
      63 HEL1        -1.6971    -4.9153    24.1795 HEL1          1 ecer2   
      64 CEL1        -0.0708    -5.4852    25.4058 CEL1          1 ecer2   
      65 HEL1         1.0156    -5.6462    25.4877 HEL1          1 ecer2   
      66 CTL2        -0.7697    -5.5767    26.7643 CTL2          1 ecer2   
      67 HAL2        -1.5781    -4.8135    26.8231 HAL2          1 ecer2   
      68 HAL2        -1.2669    -6.5683    26.8539 HAL2          1 ecer2   
      69 CTL2         0.1144    -5.3799    28.0508 CTL2          1 ecer2   
      70 HAL2         0.9116    -6.1541    28.0418 HAL2          1 ecer2   
      71 HAL2         0.6135    -4.3891    27.9853 HAL2          1 ecer2   
      72 CTL2        -0.6309    -5.4581    29.4317 CTL2          1 ecer2   
      73 HAL2        -1.3937    -4.6473    29.4590 HAL2          1 ecer2   
      74 HAL2        -1.1761    -6.4266    29.4932 HAL2          1 ecer2   
      75 CTL2         0.2555    -5.3262    30.7220 CTL2          1 ecer2   
      76 HAL2         0.9766    -6.1739    30.7401 HAL2          1 ecer2   
      77 HAL2         0.8470    -4.3871    30.6483 HAL2          1 ecer2   
      78 CTL2        -0.5058    -5.3045    32.0929 CTL2          1 ecer2   
      79 HAL2        -1.2198    -4.4533    32.0829 HAL2          1 ecer2   
      80 HAL2        -1.1005    -6.2386    32.1889 HAL2          1 ecer2   
      81 CTL2         0.3872    -5.1653    33.3723 CTL2          1 ecer2   
      82 HAL2         1.0912    -6.0296    33.4128 HAL2          1 ecer2   
      83 HAL2         1.0046    -4.2415    33.2722 HAL2          1 ecer2   
      84 CTL2        -0.3695    -5.0902    34.7413 CTL2          1 ecer2   
      85 HAL2        -1.0837    -4.2406    34.7032 HAL2          1 ecer2   
      86 HAL2        -0.9605    -6.0208    34.8744 HAL2          1 ecer2   
      87 CTL2         0.5390    -4.9005    35.9941 CTL2          1 ecer2   
      88 HAL2         1.2580    -5.7490    36.0507 HAL2          1 ecer2   
      89 HAL2         1.1315    -3.9675    35.8610 HAL2          1 ecer2   
      90 CTL2        -0.2007    -4.8049    37.3630 CTL2          1 ecer2   
      91 HAL2        -0.9456    -3.9793    37.3105 HAL2          1 ecer2   
      92 HAL2        -0.7607    -5.7516    37.5359 HAL2          1 ecer2   
      93 CTL2         0.7240    -4.5462    38.5834 CTL2          1 ecer2   
      94 HAL2         1.4761    -5.3612    38.6471 HAL2          1 ecer2   
      95 HAL2         1.2727    -3.5953    38.4154 HAL2          1 ecer2   
      96 CTL2         0.0004    -4.4494    39.9532 CTL2          1 ecer2   
      97 HAL2        -0.7768    -3.6537    39.9037 HAL2          1 ecer2   
      98 HAL2        -0.5223    -5.4100    40.1633 HAL2          1 ecer2   
      99 CTL2         0.9367    -4.1310    41.1433 CTL2          1 ecer2   
     100 HAL2         1.7305    -4.9087    41.1967 HAL2          1 ecer2   
     101 HAL2         1.4396    -3.1577    40.9494 HAL2          1 ecer2   
     102 CTL3         0.2216    -4.0437    42.5898 CTL3          1 ecer2   
     103 HAL3         0.9258    -3.7865    43.4331 HAL3          1 ecer2   
     104 HAL3        -0.5926    -3.2676    42.6584 HAL3          1 ecer2   
     105 HAL3        -0.2715    -5.0017    42.9219 HAL3          1 ecer2   
@<TRIPOS>BOND
       1       38       39 1
       2       93       94 1
       3        8       11 1
       4       14       17 1
       5       33       32 1
       6       41       43 1
       7       96       98 1
       8       23       25 1
       9       44       45 1
      10       99      100 1
      11       66       67 1
      12      102      103 1
      13       47       48 1
      14       51       58 1
      15       51       52 1
      16       69       71 1
      17        8        9 1
      18       41       44 1
      19       96       99 1
      20       84       86 1
      21       72       74 1
      22       11       12 1
      23       81       83 1
      24       51        1 1
      25       90       91 1
      26       35       36 1
      27       53       55 1
      28       20       22 1
      29       11       14 1
      30       23       24 1
      31       78       81 1
      32       44       47 1
      33       99      102 1
      34       26       28 1
      35       84       87 1
      36       81       84 1
      37       26       27 1
      38       64       66 1
      39       47       49 1
      40       66       68 1
      41      102      104 1
      42       20       23 1
      43       47       50 1
      44       66       69 1
      45      102      105 1
      46       72       75 1
      47       56       57 1
      48       44       46 1
      49       99      101 1
      50       75       78 1
      51        5        8 1
      52       17       20 1
      53       90       92 1
      54       53       56 1
      55       35       37 1
      56       11       13 1
      57        5        7 1
      58       93       96 1
      59       38       41 1
      60       69       70 1
      61       32       29 1
      62       87       88 1
      63       51       53 1
      64       17       18 1
      65       26       29 1
      66       87       90 1
      67       58       59 1
      68       81       82 1
      69       38       40 1
      70       93       95 1
      71       78       79 1
      72       34       32 1
      73       75       77 1
      74       17       19 1
      75       75       76 1
      76       58       60 1
      77       23       26 1
      78       62       63 1
      79        3        1 1
      80       69       72 1
      81       78       80 1
      82       14       15 1
      83       29       31 1
      84       64       65 1
      85        1        2 1
      86       84       85 1
      87       87       89 1
      88       58       62 1
      89       29       30 1
      90        3        4 1
      91       96       97 1
      92       60       61 1
      93       41       42 1
      94       54       53 1
      95       35       32 1
      96       20       21 1
      97        8       10 1
      98       72       73 1
      99       90       93 1
     100       62       64 1
     101       35       38 1
     102        3        5 1
     103       14       16 1
     104        5        6 1
@<TRIPOS>SUBSTRUCTURE
       1 ecer2           1 RESIDUE    0 **** ROOT      0
