@<TRIPOS>MOLECULE
DSPC
142 141 1 0 1
SMALL
USER_CHARGES
@<TRIPOS>CRYSIN
   17.7943    12.5120    33.8593    90.0000    90.0000    90.0000  1  1
@<TRIPOS>ATOM
       1 NTL          6.9014     3.9178     4.3883 NTL           1 DSPC      -0.600000
       2 CTL5         7.2055     4.9625     5.4285 CTL5          1 DSPC      -0.350000
       3 HL           8.2291     5.2910     5.3443 HL            1 DSPC       0.250000
       4 HL           7.2087     4.4137     6.3626 HL            1 DSPC       0.250000
       5 HL           6.5569     5.8229     5.3620 HL            1 DSPC       0.250000
       6 CTL5         6.7245     4.5787     3.0836 CTL5          1 DSPC      -0.350000
       7 HL           7.4841     5.3054     2.8325 HL            1 DSPC       0.250000
       8 HL           5.7471     5.0299     3.0248 HL            1 DSPC       0.250000
       9 HL           6.6472     3.7958     2.3446 HL            1 DSPC       0.250000
      10 CTL5         8.0678     2.9812     4.2821 CTL5          1 DSPC      -0.350000
      11 HL           9.0629     3.4203     4.3317 HL            1 DSPC       0.250000
      12 HL           8.0070     2.2707     3.4703 HL            1 DSPC       0.250000
      13 HL           8.0332     2.3202     5.1371 HL            1 DSPC       0.250000
      14 CTL2         5.6774     3.1556     4.7490 CTL2          1 DSPC      -0.100000
      15 HL           5.8086     2.7701     5.7454 HL            1 DSPC       0.250000
      16 HL           5.4190     2.4434     3.9786 HL            1 DSPC       0.250000
      17 CTL2         4.4233     4.0091     5.0607 CTL2          1 DSPC      -0.080000
      18 HAL2         4.6498     4.8363     5.7704 HAL2          1 DSPC       0.090000
      19 HAL2         3.6030     3.4454     5.5455 HAL2          1 DSPC       0.090000
      20 PL           2.7137     3.9850     2.9654 PL            1 DSPC       1.500000
      21 O2L          2.8050     4.5821     1.6443 O2L           1 DSPC      -0.780000
      22 O2L          1.4360     4.0694     3.7466 O2L           1 DSPC      -0.780000
      23 OSLP         3.1574     2.4477     2.8809 OSLP          1 DSPC      -0.570000
      24 OSLP         3.8238     4.6196     3.8958 OSLP          1 DSPC      -0.570000
      25 CTL2         3.9335     1.9632     1.7800 CTL2          1 DSPC      -0.080000
      26 HAL2         4.3473     0.9541     1.9752 HAL2          1 DSPC       0.090000
      27 HAL2         4.8200     2.6240     1.7892 HAL2          1 DSPC       0.090000
      28 CTL1         3.1582     1.8991     0.4483 CTL1          1 DSPC       0.170000
      29 HAL1         2.7921     2.9297     0.2112 HAL1          1 DSPC       0.090000
      30 OSL          2.1476     0.8158     0.5103 OSL           1 DSPC      -0.490000
      31 CL           0.9325     1.2169     0.0726 CL            1 DSPC       0.900000
      32 OBL          0.6021     2.3141    -0.2470 OBL           1 DSPC      -0.630000
      33 CTL2         0.0000     0.0000     0.0000 CTL2          1 DSPC      -0.220000
      34 HAL2        -0.7745     0.1597     0.7862 HAL2          1 DSPC       0.090000
      35 HAL2         0.5688    -0.9295     0.2381 HAL2          1 DSPC       0.090000
      36 CTL2         4.0199     1.6497    -0.7896 CTL2          1 DSPC       0.080000
      37 HAL2         4.5473     0.6807    -0.7020 HAL2          1 DSPC       0.090000
      38 HAL2         4.8311     2.3977    -0.7354 HAL2          1 DSPC       0.090000
      39 OSL          3.2825     1.6979    -2.0422 OSL           1 DSPC      -0.490000
      40 CL           3.1314     2.9693    -2.4308 CL            1 DSPC       0.900000
      41 OBL          3.7205     3.9579    -2.0365 OBL           1 DSPC      -0.630000
      42 CTL2         1.8850     3.0034    -3.3565 CTL2          1 DSPC      -0.220000
      43 HAL2         0.9573     2.7797    -2.7859 HAL2          1 DSPC       0.090000
      44 HAL2         2.1271     2.2361    -4.1202 HAL2          1 DSPC       0.090000
      45 CTL2        -0.6318     0.0131    -1.3102 CTL2          1 DSPC      -0.180000
      46 HAL2        -1.0608     1.0009    -1.5741 HAL2          1 DSPC       0.090000
      47 HAL2        -1.5222    -0.6595    -1.2275 HAL2          1 DSPC       0.090000
      48 CTL2         0.1206    -0.5205    -2.4489 CTL2          1 DSPC      -0.180000
      49 HAL2         0.4536    -1.5556    -2.2539 HAL2          1 DSPC       0.090000
      50 HAL2         0.9761     0.1240    -2.7380 HAL2          1 DSPC       0.090000
      51 CTL2        -0.8139    -0.4991    -3.6436 CTL2          1 DSPC      -0.180000
      52 HAL2        -1.5019     0.3759    -3.7044 HAL2          1 DSPC       0.090000
      53 HAL2        -1.4324    -1.4144    -3.7600 HAL2          1 DSPC       0.090000
      54 CTL2        -0.0441    -0.6629    -4.9300 CTL2          1 DSPC      -0.180000
      55 HAL2         0.5128    -1.6051    -5.1499 HAL2          1 DSPC       0.090000
      56 HAL2         0.7971     0.0551    -5.0144 HAL2          1 DSPC       0.090000
      57 CTL2        -0.9733    -0.4504    -6.1065 CTL2          1 DSPC      -0.180000
      58 HAL2        -1.4120     0.5478    -5.9331 HAL2          1 DSPC       0.090000
      59 HAL2        -1.7907    -1.2183    -6.0993 HAL2          1 DSPC       0.090000
      60 CTL2        -0.2179    -0.5995    -7.4613 CTL2          1 DSPC      -0.180000
      61 HAL2         0.0242    -1.6803    -7.5524 HAL2          1 DSPC       0.090000
      62 HAL2         0.6901     0.0341    -7.5678 HAL2          1 DSPC       0.090000
      63 CTL2        -1.1200    -0.1798    -8.5960 CTL2          1 DSPC      -0.180000
      64 HAL2        -1.4594     0.8721    -8.4539 HAL2          1 DSPC       0.090000
      65 HAL2        -2.0456    -0.8038    -8.6021 HAL2          1 DSPC       0.090000
      66 CTL2        -0.4438    -0.2828    -9.9504 CTL2          1 DSPC      -0.180000
      67 HAL2        -0.0455    -1.2623   -10.2765 HAL2          1 DSPC       0.090000
      68 HAL2         0.3903     0.4195   -10.1318 HAL2          1 DSPC       0.090000
      69 CTL2        -1.5341     0.0210   -11.0176 CTL2          1 DSPC      -0.180000
      70 HAL2        -2.0668     0.9565   -10.7354 HAL2          1 DSPC       0.090000
      71 HAL2        -2.2449    -0.8238   -11.0407 HAL2          1 DSPC       0.090000
      72 CTL2        -0.8731     0.2264   -12.3930 CTL2          1 DSPC      -0.180000
      73 HAL2        -0.1887     1.1003   -12.4706 HAL2          1 DSPC       0.090000
      74 HAL2        -0.2498    -0.6444   -12.6891 HAL2          1 DSPC       0.090000
      75 CTL2        -1.9726     0.4663   -13.4296 CTL2          1 DSPC      -0.180000
      76 HAL2        -2.5077     1.4022   -13.1834 HAL2          1 DSPC       0.090000
      77 HAL2        -2.7327    -0.3342   -13.3099 HAL2          1 DSPC       0.090000
      78 CTL2        -1.5178     0.5823   -14.8611 CTL2          1 DSPC      -0.180000
      79 HAL2        -2.2847     1.0700   -15.5124 HAL2          1 DSPC       0.090000
      80 HAL2        -0.7136     1.3452   -14.9120 HAL2          1 DSPC       0.090000
      81 CTL2        -0.9313    -0.7100   -15.4174 CTL2          1 DSPC      -0.180000
      82 HAL2        -0.2040    -1.0758   -14.6510 HAL2          1 DSPC       0.090000
      83 HAL2        -1.7748    -1.4265   -15.5135 HAL2          1 DSPC       0.090000
      84 CTL2        -0.0791    -0.6756   -16.7325 CTL2          1 DSPC      -0.180000
      85 HAL2         0.3151    -1.6891   -16.9642 HAL2          1 DSPC       0.090000
      86 HAL2         0.8347    -0.1175   -16.4426 HAL2          1 DSPC       0.090000
      87 CTL2        -0.8674    -0.0863   -17.8679 CTL2          1 DSPC      -0.180000
      88 HAL2        -1.0918     0.9447   -17.5060 HAL2          1 DSPC       0.090000
      89 HAL2        -1.7844    -0.6896   -18.0440 HAL2          1 DSPC       0.090000
      90 CTL3        -0.0000    -0.0000   -19.1224 CTL3          1 DSPC      -0.270000
      91 HAL3        -0.4579     0.6899   -19.8598 HAL3          1 DSPC       0.090000
      92 HAL3         0.1233    -1.0399   -19.4941 HAL3          1 DSPC       0.090000
      93 HAL3         1.0012     0.3869   -18.8235 HAL3          1 DSPC       0.090000
      94 CTL2         1.7130     4.3195    -4.0602 CTL2          1 DSPC      -0.180000
      95 HAL2         2.4720     4.4460    -4.8648 HAL2          1 DSPC       0.090000
      96 HAL2         1.8158     5.0456    -3.2262 HAL2          1 DSPC       0.090000
      97 CTL2         0.2723     4.5063    -4.5067 CTL2          1 DSPC      -0.180000
      98 HAL2         0.2359     5.6040    -4.6353 HAL2          1 DSPC       0.090000
      99 HAL2        -0.4251     4.3032    -3.6571 HAL2          1 DSPC       0.090000
     100 CTL2        -0.2812     3.8072    -5.7765 CTL2          1 DSPC      -0.180000
     101 HAL2        -1.3737     3.7068    -5.5964 HAL2          1 DSPC       0.090000
     102 HAL2         0.1996     2.8162    -5.9222 HAL2          1 DSPC       0.090000
     103 CTL2        -0.0482     4.6865    -7.0184 CTL2          1 DSPC      -0.180000
     104 HAL2         1.0374     4.8617    -7.1750 HAL2          1 DSPC       0.090000
     105 HAL2        -0.5088     5.6993    -6.8767 HAL2          1 DSPC       0.090000
     106 CTL2        -0.5607     3.9753    -8.2716 CTL2          1 DSPC      -0.180000
     107 HAL2        -1.5995     3.6842    -7.9832 HAL2          1 DSPC       0.090000
     108 HAL2         0.1469     3.1177    -8.3677 HAL2          1 DSPC       0.090000
     109 CTL2        -0.5697     4.8292    -9.5249 CTL2          1 DSPC      -0.180000
     110 HAL2         0.4407     5.1930    -9.8108 HAL2          1 DSPC       0.090000
     111 HAL2        -1.2638     5.6431    -9.2217 HAL2          1 DSPC       0.090000
     112 CTL2        -1.0431     4.1201   -10.7948 CTL2          1 DSPC      -0.180000
     113 HAL2        -2.0392     3.6816   -10.5690 HAL2          1 DSPC       0.090000
     114 HAL2        -0.2035     3.3986   -10.9070 HAL2          1 DSPC       0.090000
     115 CTL2        -1.1469     4.9460   -12.1057 CTL2          1 DSPC      -0.180000
     116 HAL2        -0.1226     5.3801   -12.2111 HAL2          1 DSPC       0.090000
     117 HAL2        -2.0136     5.6205   -11.9365 HAL2          1 DSPC       0.090000
     118 CTL2        -1.4606     4.1251   -13.3515 CTL2          1 DSPC      -0.180000
     119 HAL2        -2.4201     3.5889   -13.1487 HAL2          1 DSPC       0.090000
     120 HAL2        -0.7073     3.3339   -13.5307 HAL2          1 DSPC       0.090000
     121 CTL2        -1.6823     4.9477   -14.6266 CTL2          1 DSPC      -0.180000
     122 HAL2        -0.7639     5.5349   -14.8594 HAL2          1 DSPC       0.090000
     123 HAL2        -2.5252     5.6736   -14.7087 HAL2          1 DSPC       0.090000
     124 CTL2        -1.8744     4.0490   -15.8315 CTL2          1 DSPC      -0.180000
     125 HAL2        -2.8911     3.6066   -15.7573 HAL2          1 DSPC       0.090000
     126 HAL2        -1.0948     3.2675   -15.9234 HAL2          1 DSPC       0.090000
     127 CTL2        -2.0043     4.7871   -17.2027 CTL2          1 DSPC      -0.180000
     128 HAL2        -1.4079     5.6972   -17.4045 HAL2          1 DSPC       0.090000
     129 HAL2        -3.0774     5.0825   -17.2953 HAL2          1 DSPC       0.090000
     130 CTL2        -1.7567     3.8765   -18.4241 CTL2          1 DSPC      -0.180000
     131 HAL2        -1.9213     2.8098   -18.1673 HAL2          1 DSPC       0.090000
     132 HAL2        -0.7025     4.0510   -18.7454 HAL2          1 DSPC       0.090000
     133 CTL2        -2.6624     4.2772   -19.6060 CTL2          1 DSPC      -0.180000
     134 HAL2        -2.4923     5.3277   -19.9245 HAL2          1 DSPC       0.090000
     135 HAL2        -3.7314     4.1036   -19.3560 HAL2          1 DSPC       0.090000
     136 CTL2        -2.3768     3.4105   -20.8714 CTL2          1 DSPC      -0.180000
     137 HAL2        -2.4689     2.3337   -20.5780 HAL2          1 DSPC       0.090000
     138 HAL2        -3.1374     3.6495   -21.6478 HAL2          1 DSPC       0.090000
     139 CTL3        -1.0064     3.5368   -21.5346 CTL3          1 DSPC      -0.270000
     140 HAL3        -0.6659     4.5796   -21.7065 HAL3          1 DSPC       0.090000
     141 HAL3        -0.2240     3.1621   -20.8388 HAL3          1 DSPC       0.090000
     142 HAL3        -0.9644     2.9696   -22.4967 HAL3          1 DSPC       0.090000
@<TRIPOS>BOND
       1      124      126 1
       2       17       24 1
       3        1        6 1
       4      115      118 1
       5      127      130 1
       6      106      107 1
       7      109      112 1
       8      124      127 1
       9       75       78 1
      10        1       10 1
      11       39       40 1
      12       75       76 1
      13       63       64 1
      14      112      113 1
      15       20       24 1
      16      136      137 1
      17       90       92 1
      18       54       56 1
      19       40       41 1
      20       94       97 1
      21      100      101 1
      22       17       18 1
      23      130      133 1
      24       84       86 1
      25       48       50 1
      26       45       47 1
      27       81       83 1
      28       57       60 1
      29       14       16 1
      30      106      108 1
      31       66       67 1
      32       30       31 1
      33        4        2 1
      34      121      123 1
      35       66       68 1
      36       28       29 1
      37      136      138 1
      38      100      102 1
      39       28       30 1
      40      127      129 1
      41       84       87 1
      42       48       51 1
      43       45       48 1
      44       81       84 1
      45      106      109 1
      46      109      111 1
      47        6        9 1
      48       78       81 1
      49      121      124 1
      50      115      117 1
      51       75       77 1
      52      103      104 1
      53      139      140 1
      54      100      103 1
      55       42       44 1
      56       10       11 1
      57        6        8 1
      58       90       93 1
      59      118      119 1
      60       78       80 1
      61       57       59 1
      62       54       57 1
      63      136      139 1
      64       60       61 1
      65       31       32 1
      66       25       26 1
      67      133      134 1
      68       63       66 1
      69       97       98 1
      70       28       36 1
      71      112      114 1
      72       40       42 1
      73       36       37 1
      74       72       73 1
      75       10       12 1
      76      118      120 1
      77      139      142 1
      78      103      106 1
      79       10       13 1
      80      118      121 1
      81       69       72 1
      82       94       95 1
      83      130      131 1
      84      115      116 1
      85      127      128 1
      86       23       25 1
      87       51       52 1
      88       87       88 1
      89        1        2 1
      90       33       34 1
      91       69       70 1
      92       36       39 1
      93       72       75 1
      94       14       15 1
      95       60       62 1
      96        2        5 1
      97       20       21 1
      98      112      115 1
      99       51       54 1
     100       87       90 1
     101      121      122 1
     102       42       94 1
     103       45       46 1
     104       81       82 1
     105       33       35 1
     106       69       71 1
     107       14       17 1
     108       94       96 1
     109      130      132 1
     110        1       14 1
     111       36       38 1
     112       57       58 1
     113       72       74 1
     114      139      141 1
     115      103      105 1
     116       31       33 1
     117       66       69 1
     118        3        2 1
     119       60       63 1
     120       17       19 1
     121      109      110 1
     122      124      125 1
     123       84       85 1
     124       48       49 1
     125       20       22 1
     126       51       53 1
     127       87       89 1
     128       20       23 1
     129       33       45 1
     130       42       43 1
     131       78       79 1
     132       97      100 1
     133      133      136 1
     134        6        7 1
     135       25       28 1
     136       63       65 1
     137       25       27 1
     138       97       99 1
     139      133      135 1
     140       90       91 1
     141       54       55 1
@<TRIPOS>SUBSTRUCTURE
       1 DSPC            1 RESIDUE    0 **** ROOT      0
