@<TRIPOS>MOLECULE
ucer3
132 131 1 0 1
SMALL
NO_CHARGES
@<TRIPOS>CRYSIN
   15.0012    10.9953    37.6373    90.0000    90.0000    90.0000  1  1
@<TRIPOS>ATOM
       1 NH1         -5.1188    -1.7579    29.4515 NH1           1 ucer3   
       2 HN1         -5.2733    -2.3707    30.2211 HN1           1 ucer3   
       3 CLN         -4.9177    -2.2570    28.2196 CLN           1 ucer3   
       4 OBL         -4.9263    -3.4661    28.0566 OBL           1 ucer3   
       5 CTL2        -4.6839    -1.3034    27.0560 CTL2          1 ucer3   
       6 HAL2        -3.7573    -0.6708    27.2510 HAL2          1 ucer3   
       7 HAL2        -5.5732    -0.6466    26.9468 HAL2          1 ucer3   
       8 CTL2        -4.4880    -2.1400    25.7896 CTL2          1 ucer3   
       9 HAL2        -3.6068    -2.8072    25.9141 HAL2          1 ucer3   
      10 HAL2        -5.3971    -2.7512    25.6002 HAL2          1 ucer3   
      11 CTL2        -4.2522    -1.1924    24.6148 CTL2          1 ucer3   
      12 HAL2        -5.1344    -0.5245    24.4933 HAL2          1 ucer3   
      13 HAL2        -3.3441    -0.5805    24.8072 HAL2          1 ucer3   
      14 CTL2        -4.0546    -2.0149    23.3385 CTL2          1 ucer3   
      15 HAL2        -3.1739    -2.6802    23.4609 HAL2          1 ucer3   
      16 HAL2        -4.9614    -2.6250    23.1465 HAL2          1 ucer3   
      17 CTL2        -3.8202    -1.0658    22.1615 CTL2          1 ucer3   
      18 HAL2        -4.6982    -0.4014    22.0395 HAL2          1 ucer3   
      19 HAL2        -2.9118    -0.4561    22.3518 HAL2          1 ucer3   
      20 CTL2        -3.6202    -1.8883    20.8846 CTL2          1 ucer3   
      21 HAL2        -2.7411    -2.5544    21.0057 HAL2          1 ucer3   
      22 HAL2        -4.5289    -2.4993    20.6932 HAL2          1 ucer3   
      23 CTL2        -3.3852    -0.9423    19.7065 CTL2          1 ucer3   
      24 HAL2        -4.2654    -0.2756    19.5843 HAL2          1 ucer3   
      25 HAL2        -2.4769    -0.3303    19.8979 HAL2          1 ucer3   
      26 CTL2        -3.1867    -1.7643    18.4304 CTL2          1 ucer3   
      27 HAL2        -2.3065    -2.4287    18.5528 HAL2          1 ucer3   
      28 HAL2        -4.0948    -2.3740    18.2381 HAL2          1 ucer3   
      29 CTL2        -2.9517    -0.8161    17.2524 CTL2          1 ucer3   
      30 HAL2        -3.8302    -0.1508    17.1304 HAL2          1 ucer3   
      31 HAL2        -2.0441    -0.2056    17.4447 HAL2          1 ucer3   
      32 CTL2        -2.7532    -1.6381    15.9763 CTL2          1 ucer3   
      33 HAL2        -1.8730    -2.3048    16.0986 HAL2          1 ucer3   
      34 HAL2        -3.6602    -2.2483    15.7853 HAL2          1 ucer3   
      35 CTL2        -2.5163    -0.6912    14.7976 CTL2          1 ucer3   
      36 HAL2        -3.3971    -0.0237    14.6763 HAL2          1 ucer3   
      37 HAL2        -1.6088    -0.0785    14.9910 HAL2          1 ucer3   
      38 CTL2        -2.3193    -1.5128    13.5223 CTL2          1 ucer3   
      39 HAL2        -1.4389    -2.1794    13.6435 HAL2          1 ucer3   
      40 HAL2        -3.2267    -2.1243    13.3310 HAL2          1 ucer3   
      41 CTL2        -2.0834    -0.5664    12.3443 CTL2          1 ucer3   
      42 HAL2        -2.9634     0.1015    12.2232 HAL2          1 ucer3   
      43 HAL2        -1.1751     0.0455    12.5358 HAL2          1 ucer3   
      44 CTL2        -1.8846    -1.3872    11.0694 CTL2          1 ucer3   
      45 HAL2        -1.0051    -2.0542    11.1905 HAL2          1 ucer3   
      46 HAL2        -2.7930    -1.9981    10.8760 HAL2          1 ucer3   
      47 CTL2        -1.6499    -0.4402     9.8903 CTL2          1 ucer3   
      48 HAL2        -2.5301     0.2264     9.7680 HAL2          1 ucer3   
      49 HAL2        -0.7428     0.1711    10.0835 HAL2          1 ucer3   
      50 CTL2        -1.4524    -1.2628     8.6150 CTL2          1 ucer3   
      51 HAL2        -0.5719    -1.9293     8.7352 HAL2          1 ucer3   
      52 HAL2        -2.3596    -1.8742     8.4227 HAL2          1 ucer3   
      53 CTL2        -1.2162    -0.3184     7.4349 CTL2          1 ucer3   
      54 HAL2        -2.0943     0.3494     7.3162 HAL2          1 ucer3   
      55 HAL2        -0.3093     0.2929     7.6291 HAL2          1 ucer3   
      56 CTL2        -1.0174    -1.1470     6.1625 CTL2          1 ucer3   
      57 HAL2        -1.9243    -1.7676     6.0023 HAL2          1 ucer3   
      58 HAL2        -0.1516    -1.8237     6.3131 HAL2          1 ucer3   
      59 CTL2        -0.7783    -0.2354     4.9564 CTL2          1 ucer3   
      60 HAL2         0.1218     0.3922     5.1321 HAL2          1 ucer3   
      61 HAL2        -1.6429     0.4456     4.8225 HAL2          1 ucer3   
      62 CTL2        -0.5797    -1.0530     3.6795 CTL2          1 ucer3   
      63 HAL2        -1.4643    -1.7019     3.5040 HAL2          1 ucer3   
      64 HAL2         0.3146    -1.7038     3.7890 HAL2          1 ucer3   
      65 CTL2        -0.3890    -0.1164     2.4849 CTL2          1 ucer3   
      66 HAL2         0.4991     0.5308     2.6538 HAL2          1 ucer3   
      67 HAL2        -1.2787     0.5414     2.3808 HAL2          1 ucer3   
      68 CTL2        -0.1976    -0.9254     1.2003 CTL2          1 ucer3   
      69 HAL2        -1.0886    -1.5705     1.0402 HAL2          1 ucer3   
      70 HAL2         0.6809    -1.5919     1.3192 HAL2          1 ucer3   
      71 CTL3         0.0000     0.0000     0.0000 CTL3          1 ucer3   
      72 HAL3        -0.8873     0.6564    -0.1181 HAL3          1 ucer3   
      73 HAL3         0.1284    -0.6184    -0.9148 HAL3          1 ucer3   
      74 HAL3         0.9071     0.6262     0.1566 HAL3          1 ucer3   
      75 CTL1        -5.1109    -0.3418    29.6575 CTL1          1 ucer3   
      76 HAL1        -5.4491     0.2030    28.7492 HAL1          1 ucer3   
      77 CTL2        -6.0778     0.0324    30.7918 CTL2          1 ucer3   
      78 HAL2        -5.7096    -0.4507    31.7226 HAL2          1 ucer3   
      79 HAL2        -6.0404     1.1276    30.9756 HAL2          1 ucer3   
      80 OHL         -7.4048    -0.3650    30.4873 OHL           1 ucer3   
      81 HOL         -7.9758    -0.1578    31.2301 HOL           1 ucer3   
      82 CTL1        -3.7201     0.0860    30.0250 CTL1          1 ucer3   
      83 HAL1        -3.0390    -0.7917    30.0424 HAL1          1 ucer3   
      84 OHL         -3.6504     0.7829    31.2594 OHL           1 ucer3   
      85 HOL         -2.7480     1.0531    31.4465 HOL           1 ucer3   
      86 CTL1        -3.1610     0.9825    28.9594 CTL1          1 ucer3   
      87 HAL1        -2.3921     1.6662    29.4506 HAL1          1 ucer3   
      88 OHL         -4.2921     1.8716    28.5302 OHL           1 ucer3   
      89 HOL         -3.8827     2.5292    27.7491 HOL           1 ucer3   
      90 CTL2        -2.6176     0.5036    27.8335 CTL2          1 ucer3   
      91 HAL2        -1.4969     0.4327    28.0302 HAL2          1 ucer3   
      92 HAL2        -2.9830    -0.5683    27.7077 HAL2          1 ucer3   
      93 CTL2        -2.7608     1.1859    26.5025 CTL2          1 ucer3   
      94 HAL2        -3.8281     1.2241    26.1961 HAL2          1 ucer3   
      95 HAL2        -2.3906     2.2333    26.5288 HAL2          1 ucer3   
      96 CTL2        -1.9809     0.4377    25.4186 CTL2          1 ucer3   
      97 HAL2        -0.8914     0.4434    25.6372 HAL2          1 ucer3   
      98 HAL2        -2.3721    -0.5946    25.2919 HAL2          1 ucer3   
      99 CTL2        -2.2117     1.1984    24.1131 CTL2          1 ucer3   
     100 HAL2        -3.2672     1.1867    23.7626 HAL2          1 ucer3   
     101 HAL2        -1.7884     2.2249    24.1056 HAL2          1 ucer3   
     102 CTL2        -1.4131     0.4013    23.0810 CTL2          1 ucer3   
     103 HAL2        -0.3070     0.4045    23.2099 HAL2          1 ucer3   
     104 HAL2        -1.7781    -0.6264    22.8667 HAL2          1 ucer3   
     105 CTL2        -1.6337     1.1524    21.7665 CTL2          1 ucer3   
     106 HAL2        -2.6602     1.1481    21.3412 HAL2          1 ucer3   
     107 HAL2        -1.2023     2.1711    21.6795 HAL2          1 ucer3   
     108 CTL2        -0.8441     0.3750    20.7128 CTL2          1 ucer3   
     109 HAL2         0.2647     0.3682    20.7825 HAL2          1 ucer3   
     110 HAL2        -1.1829    -0.6507    20.4452 HAL2          1 ucer3   
     111 CTL2        -1.0426     1.0998    19.3790 CTL2          1 ucer3   
     112 HAL2        -2.0552     1.1097    18.9236 HAL2          1 ucer3   
     113 HAL2        -0.6177     2.1189    19.2564 HAL2          1 ucer3   
     114 CTL2        -0.2659     0.3522    18.2925 CTL2          1 ucer3   
     115 HAL2         0.8428     0.3272    18.3579 HAL2          1 ucer3   
     116 HAL2        -0.5884    -0.6754    18.0277 HAL2          1 ucer3   
     117 CTL2        -0.4346     1.0434    16.9363 CTL2          1 ucer3   
     118 HAL2        -1.4581     1.0707    16.5015 HAL2          1 ucer3   
     119 HAL2        -0.0301     2.0739    16.8342 HAL2          1 ucer3   
     120 CTL2         0.3272     0.3268    15.8228 CTL2          1 ucer3   
     121 HAL2         1.4328     0.2890    15.9346 HAL2          1 ucer3   
     122 HAL2         0.0032    -0.7128    15.6006 HAL2          1 ucer3   
     123 CTL2         0.1740     0.9977    14.4588 CTL2          1 ucer3   
     124 HAL2        -0.8707     1.0311    14.0776 HAL2          1 ucer3   
     125 HAL2         0.5619     2.0367    14.4103 HAL2          1 ucer3   
     126 CTL2         0.9302     0.2914    13.3308 CTL2          1 ucer3   
     127 HAL2         2.0254     0.2512    13.5199 HAL2          1 ucer3   
     128 HAL2         0.5942    -0.7581    13.1902 HAL2          1 ucer3   
     129 CTL3         0.7863     0.9499    11.9584 CTL3          1 ucer3   
     130 HAL3         1.3336     0.4385    11.1393 HAL3          1 ucer3   
     131 HAL3        -0.2785     0.9927    11.6445 HAL3          1 ucer3   
     132 HAL3         1.1519     2.0008    11.9923 HAL3          1 ucer3   
@<TRIPOS>BOND
       1       71       72 1
       2      123      126 1
       3        3        1 1
       4      108      110 1
       5       38       40 1
       6       44       46 1
       7      114      116 1
       8      111      114 1
       9       41       44 1
      10      120      117 1
      11       23       26 1
      12       75       76 1
      13       51       50 1
      14       23       24 1
      15       77       78 1
      16       11       12 1
      17       26       28 1
      18      120      121 1
      19       84       85 1
      20       93       94 1
      21      129      130 1
      22       59       61 1
      23       86       82 1
      24       84       82 1
      25        5        8 1
      26      126      128 1
      27       90       92 1
      28       68       69 1
      29       14       15 1
      30       99      100 1
      31       29       30 1
      32      102      103 1
      33       32       33 1
      34       35       36 1
      35      105      106 1
      36       14       16 1
      37       47       48 1
      38      117      118 1
      39       99      102 1
      40       77       80 1
      41       29       32 1
      42       41       43 1
      43      111      113 1
      44       41       42 1
      45      111      112 1
      46       50       47 1
      47      123      125 1
      48        2        1 1
      49       26       29 1
      50       56       57 1
      51       23       25 1
      52       77       79 1
      53       86       87 1
      54       53       50 1
      55        5        7 1
      56        8        9 1
      57       68       70 1
      58       11       14 1
      59       80       81 1
      60      120      122 1
      61       20       21 1
      62       86       88 1
      63      102      104 1
      64       32       34 1
      65       83       82 1
      66       71       74 1
      67       17       20 1
      68      123      124 1
      69      102      105 1
      70       53       55 1
      71       32       35 1
      72       44       47 1
      73      114      117 1
      74       66       65 1
      75       99      101 1
      76      105      108 1
      77       29       31 1
      78       35       38 1
      79       86       90 1
      80       62       64 1
      81       17       18 1
      82       20       23 1
      83      126      127 1
      84       90       91 1
      85        8       10 1
      86       62       65 1
      87       96       97 1
      88      120      123 1
      89       93       96 1
      90      129      132 1
      91       67       65 1
      92       71       73 1
      93      108      111 1
      94       17       19 1
      95       38       41 1
      96       56       58 1
      97      126      129 1
      98       90       93 1
      99       75       82 1
     100        3        4 1
     101       56       59 1
     102       62       63 1
     103       20       22 1
     104        5        6 1
     105       14       17 1
     106        8       11 1
     107      129      131 1
     108       93       95 1
     109       59       60 1
     110      108      109 1
     111       38       39 1
     112       47       49 1
     113      117      119 1
     114       75       77 1
     115       88       89 1
     116       96       98 1
     117       75        1 1
     118       53       54 1
     119      105      107 1
     120        3        5 1
     121       35       37 1
     122       96       99 1
     123       44       45 1
     124      114      115 1
     125       68       71 1
     126       59       62 1
     127       26       27 1
     128       11       13 1
     129       53       56 1
     130       68       65 1
     131       52       50 1
@<TRIPOS>SUBSTRUCTURE
       1 ucer3           1 RESIDUE    0 **** ROOT      0
