@<TRIPOS>MOLECULE
ffa18
56 55 1 0 1
SMALL
USER_CHARGES
@<TRIPOS>CRYSIN
    8.0639     8.3894    28.1745    90.0000    90.0000    90.0000  1  1
@<TRIPOS>ATOM
       1 HOL          0.0000    -0.0000   -21.1967 HOL           1 ffa18      0.440000
       2 OHL         -0.4535    -0.6987   -19.9133 OHL           1 ffa18     -0.610000
       3 OBL          0.0541     0.0833   -18.7002 OBL           1 ffa18     -0.550000
       4 CL          -0.3994    -0.6154   -17.4168 CL            1 ffa18      0.750000
       5 CTL2         0.1082     0.1667   -16.2037 CTL2          1 ffa18     -0.210000
       6 HAL2        -0.3453    -0.5320   -14.9203 HAL2          1 ffa18      0.090000
       7 HAL2         0.1623     0.2500   -13.7072 HAL2          1 ffa18      0.090000
       8 CTL2        -0.2912    -0.4487   -12.4238 CTL2          1 ffa18     -0.180000
       9 HAL2         0.2164     0.3334   -11.2107 HAL2          1 ffa18      0.090000
      10 HAL2        -0.2371    -0.3653    -9.9273 HAL2          1 ffa18      0.090000
      11 CTL2         0.2705     0.4167    -8.7142 CTL2          1 ffa18     -0.180000
      12 HAL2        -0.1830    -0.2820    -7.4308 HAL2          1 ffa18      0.090000
      13 HAL2         0.3246     0.5001    -6.2177 HAL2          1 ffa18      0.090000
      14 CTL2        -0.1289    -0.1987    -4.9343 CTL2          1 ffa18     -0.180000
      15 HAL2         0.3786     0.5834    -3.7212 HAL2          1 ffa18      0.090000
      16 HAL2        -0.0748    -0.1153    -2.4378 HAL2          1 ffa18      0.090000
      17 CTL2         0.4327     0.6667    -1.2247 CTL2          1 ffa18     -0.180000
      18 HAL2         0.0000     0.0000     0.0000 HAL2          1 ffa18      0.090000
      19 HAL2         0.3091     0.4762     1.1136 HAL2          1 ffa18      0.090000
      20 CTL2        -0.7340    -1.1308    -0.0703 CTL2          1 ffa18     -0.180000
      21 HAL2        -0.3616    -0.5572   -22.0609 HAL2          1 ffa18      0.090000
      22 HAL2         1.0889     0.0429   -21.2217 HAL2          1 ffa18      0.090000
      23 CTL2        -0.4042     1.0120   -21.2217 CTL2          1 ffa18     -0.180000
      24 HAL2        -1.5423    -0.7416   -19.8883 HAL2          1 ffa18      0.090000
      25 HAL2        -0.0493    -1.7107   -19.8883 HAL2          1 ffa18      0.090000
      26 CTL2        -0.3501     1.0953   -18.7252 CTL2          1 ffa18     -0.180000
      27 HAL2         1.1430     0.1262   -18.7252 HAL2          1 ffa18      0.090000
      28 HAL2        -1.4883    -0.6582   -17.3918 HAL2          1 ffa18      0.090000
      29 CTL2         0.0048    -1.6273   -17.3918 CTL2          1 ffa18     -0.180000
      30 HAL2        -0.2960     1.1786   -16.2287 HAL2          1 ffa18      0.090000
      31 HAL2         1.1970     0.2096   -16.2287 HAL2          1 ffa18      0.090000
      32 CTL2        -1.4342    -0.5749   -14.8953 CTL2          1 ffa18     -0.180000
      33 HAL2         0.0589    -1.5440   -14.8953 HAL2          1 ffa18      0.090000
      34 HAL2        -0.2419     1.2620   -13.7322 HAL2          1 ffa18      0.090000
      35 CTL2         1.2511     0.2929   -13.7322 CTL2          1 ffa18     -0.180000
      36 HAL2        -1.3801    -0.4916   -12.3988 HAL2          1 ffa18      0.090000
      37 HAL2         0.1130    -1.4606   -12.3988 HAL2          1 ffa18      0.090000
      38 CTL2        -0.1879     1.3453   -11.2357 CTL2          1 ffa18     -0.180000
      39 HAL2         1.3052     0.3762   -11.2357 HAL2          1 ffa18      0.090000
      40 HAL2        -1.3260    -0.4082    -9.9023 HAL2          1 ffa18      0.090000
      41 CTL2         0.1671    -1.3773    -9.9023 CTL2          1 ffa18     -0.180000
      42 HAL2        -0.1338     1.4287    -8.7392 HAL2          1 ffa18      0.090000
      43 HAL2         1.3593     0.4596    -8.7392 HAL2          1 ffa18      0.090000
      44 CTL2        -1.2719    -0.3249    -7.4058 CTL2          1 ffa18     -0.180000
      45 HAL2         0.2212    -1.2939    -7.4058 HAL2          1 ffa18      0.090000
      46 HAL2        -0.0797     1.5120    -6.2427 HAL2          1 ffa18      0.090000
      47 CTL2         1.4134     0.5429    -6.2427 CTL2          1 ffa18     -0.180000
      48 HAL2        -1.2178    -0.2415    -4.9093 HAL2          1 ffa18      0.090000
      49 HAL2         0.2753    -1.2106    -4.9093 HAL2          1 ffa18      0.090000
      50 CTL2        -0.0256     1.5954    -3.7462 CTL2          1 ffa18     -0.180000
      51 HAL2         1.4675     0.6263    -3.7462 HAL2          1 ffa18      0.090000
      52 HAL2        -1.1637    -0.1582    -2.4128 HAL2          1 ffa18      0.090000
      53 CTL3         0.3294    -1.1273    -2.4128 CTL3          1 ffa18     -0.270000
      54 HAL3         0.0285     1.6787    -1.2497 HAL3          1 ffa18      0.090000
      55 HAL3         1.5216     0.7096    -1.2497 HAL3          1 ffa18      0.090000
      56 HAL3        -1.0244    -1.5784     0.7517 HAL3          1 ffa18      0.090000
@<TRIPOS>BOND
       1       41       43 1
       2        5        7 1
       3       20       22 1
       4       35       37 1
       5       26       28 1
       6       38       39 1
       7        8       10 1
       8       44       46 1
       9       47       48 1
      10       11       12 1
      11        8       11 1
      12       44       47 1
      13       20       21 1
      14        4        2 1
      15       32       35 1
      16       50       53 1
      17       53       54 1
      18       14       17 1
      19       17       18 1
      20       47       49 1
      21        8        9 1
      22       44       45 1
      23       11       13 1
      24       38       40 1
      25       17       20 1
      26       53       56 1
      27       38       41 1
      28       41       42 1
      29        5        6 1
      30       20       23 1
      31       50       51 1
      32       14       15 1
      33       32       33 1
      34       53       55 1
      35       17       19 1
      36        1        2 1
      37       35       38 1
      38       29       30 1
      39        3        4 1
      40        5        8 1
      41       41       44 1
      42        4        5 1
      43       35       36 1
      44       23       26 1
      45       26       29 1
      46       23       25 1
      47       23       24 1
      48       50       52 1
      49       14       16 1
      50       29       31 1
      51       26       27 1
      52       47       50 1
      53       11       14 1
      54       29       32 1
      55       32       34 1
@<TRIPOS>SUBSTRUCTURE
       1 ffa18           1 RESIDUE    0 **** ROOT      0
