@<TRIPOS>MOLECULE
ffa18
56 55 1 0 1
SMALL
USER_CHARGES
@<TRIPOS>CRYSIN
    7.7168     8.3139    28.2059    90.0000    90.0000    90.0000  1  1
@<TRIPOS>ATOM
       1 HOL          0.5167     0.7271     3.7457 HOL           1 ffa18      0.440000
       2 OHL          0.0034     0.0047     2.4985 OHL           1 ffa18     -0.610000
       3 OBL          0.5133     0.7224     1.2472 OBL           1 ffa18     -0.550000
       4 CL           0.0000     0.0000     0.0000 CL            1 ffa18      0.750000
       5 CTL2         0.5100     0.7177    -1.2513 CTL2          1 ffa18     -0.210000
       6 HAL2        -0.0034    -0.0047    -2.4985 HAL2          1 ffa18      0.090000
       7 HAL2         0.5066     0.7130    -3.7498 HAL2          1 ffa18      0.090000
       8 CTL2        -0.0067    -0.0094    -4.9969 CTL2          1 ffa18     -0.180000
       9 HAL2         0.5033     0.7083    -6.2482 HAL2          1 ffa18      0.090000
      10 HAL2        -0.0101    -0.0142    -7.4954 HAL2          1 ffa18      0.090000
      11 CTL2         0.4999     0.7035    -8.7467 CTL2          1 ffa18     -0.180000
      12 HAL2        -0.0134    -0.0189    -9.9939 HAL2          1 ffa18      0.090000
      13 HAL2         0.4966     0.6988   -11.2452 HAL2          1 ffa18      0.090000
      14 CTL2        -0.0168    -0.0236   -12.4924 CTL2          1 ffa18     -0.180000
      15 HAL2         0.4932     0.6941   -13.7437 HAL2          1 ffa18      0.090000
      16 HAL2        -0.0201    -0.0283   -14.9908 HAL2          1 ffa18      0.090000
      17 CTL2         0.4899     0.6894   -16.2421 CTL2          1 ffa18     -0.180000
      18 HAL2        -0.0000     0.0000   -17.4323 HAL2          1 ffa18      0.090000
      19 HAL2         0.3014     0.4242   -18.5688 HAL2          1 ffa18      0.090000
      20 CTL2        -0.7785    -1.0956   -17.3053 CTL2          1 ffa18     -0.180000
      21 HAL2         0.1533     0.2158     4.6371 HAL2          1 ffa18      0.090000
      22 HAL2         0.1557     1.7556     3.7442 HAL2          1 ffa18      0.090000
      23 CTL2         1.6067     0.7246     3.7442 CTL2          1 ffa18     -0.180000
      24 HAL2         0.3643    -1.0238     2.4999 HAL2          1 ffa18      0.090000
      25 HAL2        -1.0866     0.0073     2.4999 HAL2          1 ffa18      0.090000
      26 CTL2         1.6033     0.7198     1.2457 CTL2          1 ffa18     -0.180000
      27 HAL2         0.1524     1.7509     1.2457 HAL2          1 ffa18      0.090000
      28 HAL2         0.3610    -1.0285     0.0015 HAL2          1 ffa18      0.090000
      29 CTL2        -1.0900     0.0026     0.0015 CTL2          1 ffa18     -0.180000
      30 HAL2         1.6000     0.7151    -1.2528 HAL2          1 ffa18      0.090000
      31 HAL2         0.1490     1.7462    -1.2528 HAL2          1 ffa18      0.090000
      32 CTL2         0.3576    -1.0332    -2.4970 CTL2          1 ffa18     -0.180000
      33 HAL2        -1.0933    -0.0021    -2.4970 HAL2          1 ffa18      0.090000
      34 HAL2         1.5966     0.7104    -3.7512 HAL2          1 ffa18      0.090000
      35 CTL2         0.1456     1.7415    -3.7512 CTL2          1 ffa18     -0.180000
      36 HAL2         0.3543    -1.0379    -4.9955 HAL2          1 ffa18      0.090000
      37 HAL2        -1.0967    -0.0069    -4.9955 HAL2          1 ffa18      0.090000
      38 CTL2         1.5933     0.7057    -6.2497 CTL2          1 ffa18     -0.180000
      39 HAL2         0.1423     1.7367    -6.2497 HAL2          1 ffa18      0.090000
      40 HAL2         0.3509    -1.0426    -7.4940 HAL2          1 ffa18      0.090000
      41 CTL2        -1.1001    -0.0116    -7.4940 CTL2          1 ffa18     -0.180000
      42 HAL2         1.5899     0.7010    -8.7482 HAL2          1 ffa18      0.090000
      43 HAL2         0.1389     1.7320    -8.7482 HAL2          1 ffa18      0.090000
      44 CTL2         0.3476    -1.0474    -9.9924 CTL2          1 ffa18     -0.180000
      45 HAL2        -1.1034    -0.0163    -9.9924 HAL2          1 ffa18      0.090000
      46 HAL2         1.5866     0.6962   -11.2467 HAL2          1 ffa18      0.090000
      47 CTL2         0.1356     1.7273   -11.2467 CTL2          1 ffa18     -0.180000
      48 HAL2         0.3442    -1.0521   -12.4909 HAL2          1 ffa18      0.090000
      49 HAL2        -1.1068    -0.0210   -12.4909 HAL2          1 ffa18      0.090000
      50 CTL2         1.5832     0.6915   -13.7451 CTL2          1 ffa18     -0.180000
      51 HAL2         0.1322     1.7226   -13.7451 HAL2          1 ffa18      0.090000
      52 HAL2         0.3409    -1.0568   -14.9894 HAL2          1 ffa18      0.090000
      53 CTL3        -1.1101    -0.0258   -14.9894 CTL3          1 ffa18     -0.270000
      54 HAL3         1.5798     0.6868   -16.2436 HAL3          1 ffa18      0.090000
      55 HAL3         0.1289     1.7178   -16.2436 HAL3          1 ffa18      0.090000
      56 HAL3        -1.1073    -1.5583   -18.1041 HAL3          1 ffa18      0.090000
@<TRIPOS>BOND
       1       41       43 1
       2        5        7 1
       3       20       22 1
       4       35       37 1
       5       26       28 1
       6       38       39 1
       7        8       10 1
       8       44       46 1
       9       47       48 1
      10       11       12 1
      11        8       11 1
      12       44       47 1
      13       20       21 1
      14        4        2 1
      15       32       35 1
      16       50       53 1
      17       53       54 1
      18       14       17 1
      19       17       18 1
      20       47       49 1
      21        8        9 1
      22       44       45 1
      23       11       13 1
      24       38       40 1
      25       53       56 1
      26       17       20 1
      27       38       41 1
      28       41       42 1
      29        5        6 1
      30       20       23 1
      31       50       51 1
      32       14       15 1
      33       32       33 1
      34       53       55 1
      35       17       19 1
      36        1        2 1
      37       35       38 1
      38       29       30 1
      39        3        4 1
      40        5        8 1
      41       41       44 1
      42        4        5 1
      43       35       36 1
      44       23       26 1
      45       26       29 1
      46       23       25 1
      47       23       24 1
      48       50       52 1
      49       14       16 1
      50       29       31 1
      51       26       27 1
      52       47       50 1
      53       11       14 1
      54       29       32 1
      55       32       34 1
@<TRIPOS>SUBSTRUCTURE
       1 ffa18           1 RESIDUE    0 **** ROOT      0
