@<TRIPOS>MOLECULE
*****
 56 55 0 0 0
SMALL
GASTEIGER

@<TRIPOS>ATOM
      1 C           9.6900   -5.7700    0.0000 C.3     1  ffa18      -0.0653
      2 C           8.1600   -5.7700    0.0000 C.3     1  ffa18      -0.0559
      3 C           7.6500   -4.3275    0.0000 C.3     1  ffa18      -0.0533
      4 C           6.1200   -4.3275    0.0000 C.3     1  ffa18      -0.0531
      5 C           5.6100   -2.8850    0.0000 C.3     1  ffa18      -0.0531
      6 C           4.0800   -2.8850    0.0000 C.3     1  ffa18      -0.0531
      7 C           3.5700   -1.4425    0.0000 C.3     1  ffa18      -0.0531
      8 C           2.0400   -1.4425    0.0000 C.3     1  ffa18      -0.0531
      9 C           1.5300    0.0000    0.0000 C.3     1  ffa18      -0.0531
     10 C           0.0000    0.0000    0.0000 C.3     1  ffa18      -0.0531
     11 C          -0.5100    1.4425    0.0000 C.3     1  ffa18      -0.0531
     12 C          -2.0400    1.4425    0.0000 C.3     1  ffa18      -0.0531
     13 C          -2.5500    2.8850    0.0000 C.3     1  ffa18      -0.0531
     14 C          -4.0800    2.8850    0.0000 C.3     1  ffa18      -0.0530
     15 C          -4.5900    4.3275    0.0000 C.3     1  ffa18      -0.0526
     16 C          -6.1200    4.3275    0.0000 C.3     1  ffa18      -0.0430
     17 C          -6.6300    5.7700    0.0000 C.3     1  ffa18       0.0448
     18 C          -8.0900    5.7700    0.0000 C.2     1  ffa18       0.3047
     19 O          -8.7150    6.8525    0.0000 O.2     1  ffa18      -0.2510
     20 O          -8.7650    4.6009    0.0000 O.3     1  ffa18      -0.4806
     21 H          10.0533   -6.7977    0.0000 H       1  ffa18       0.0230
     22 H          10.0533   -5.2562    0.8900 H       1  ffa18       0.0230
     23 H          10.0533   -5.2562   -0.8900 H       1  ffa18       0.0230
     24 H           7.7967   -6.2838   -0.8900 H       1  ffa18       0.0263
     25 H           7.7967   -6.2838    0.8900 H       1  ffa18       0.0263
     26 H           8.0133   -3.8137   -0.8900 H       1  ffa18       0.0265
     27 H           8.0133   -3.8137    0.8900 H       1  ffa18       0.0265
     28 H           5.7567   -4.8413   -0.8900 H       1  ffa18       0.0265
     29 H           5.7567   -4.8413    0.8900 H       1  ffa18       0.0265
     30 H           5.9733   -2.3712   -0.8900 H       1  ffa18       0.0265
     31 H           5.9733   -2.3712    0.8900 H       1  ffa18       0.0265
     32 H           3.7167   -3.3988   -0.8900 H       1  ffa18       0.0265
     33 H           3.7167   -3.3988    0.8900 H       1  ffa18       0.0265
     34 H           3.9333   -0.9287   -0.8900 H       1  ffa18       0.0265
     35 H           3.9333   -0.9287    0.8900 H       1  ffa18       0.0265
     36 H           1.6767   -1.9563   -0.8900 H       1  ffa18       0.0265
     37 H           1.6767   -1.9563    0.8900 H       1  ffa18       0.0265
     38 H           1.8933    0.5138   -0.8900 H       1  ffa18       0.0265
     39 H           1.8933    0.5138    0.8900 H       1  ffa18       0.0265
     40 H          -0.3633   -0.5138   -0.8900 H       1  ffa18       0.0265
     41 H          -0.3633   -0.5138    0.8900 H       1  ffa18       0.0265
     42 H          -0.1467    1.9563   -0.8900 H       1  ffa18       0.0265
     43 H          -0.1467    1.9563    0.8900 H       1  ffa18       0.0265
     44 H          -2.4033    0.9287   -0.8900 H       1  ffa18       0.0265
     45 H          -2.4033    0.9287    0.8900 H       1  ffa18       0.0265
     46 H          -2.1867    3.3988   -0.8900 H       1  ffa18       0.0265
     47 H          -2.1867    3.3988    0.8900 H       1  ffa18       0.0265
     48 H          -4.4433    2.3712   -0.8900 H       1  ffa18       0.0265
     49 H          -4.4433    2.3712    0.8900 H       1  ffa18       0.0265
     50 H          -4.2267    4.8413   -0.8900 H       1  ffa18       0.0265
     51 H          -4.2267    4.8413    0.8900 H       1  ffa18       0.0265
     52 H          -6.4833    3.8137   -0.8900 H       1  ffa18       0.0270
     53 H          -6.4833    3.8137    0.8900 H       1  ffa18       0.0270
     54 H          -6.2667    6.2838   -0.8900 H       1  ffa18       0.0377
     55 H          -6.2667    6.2838    0.8900 H       1  ffa18       0.0377
     56 H          -9.7450    4.6009    0.0000 H       1  ffa18       0.2951
@<TRIPOS>BOND
     1     1     2    1
     2     2     3    1
     3     3     4    1
     4     4     5    1
     5     5     6    1
     6     6     7    1
     7     7     8    1
     8     8     9    1
     9     9    10    1
    10    10    11    1
    11    11    12    1
    12    12    13    1
    13    13    14    1
    14    14    15    1
    15    15    16    1
    16    16    17    1
    17    17    18    1
    18    18    19    2
    19    18    20    1
    20     1    21    1
    21     1    22    1
    22     1    23    1
    23     2    24    1
    24     2    25    1
    25     3    26    1
    26     3    27    1
    27     4    28    1
    28     4    29    1
    29     5    30    1
    30     5    31    1
    31     6    32    1
    32     6    33    1
    33     7    34    1
    34     7    35    1
    35     8    36    1
    36     8    37    1
    37     9    38    1
    38     9    39    1
    39    10    40    1
    40    10    41    1
    41    11    42    1
    42    11    43    1
    43    12    44    1
    44    12    45    1
    45    13    46    1
    46    13    47    1
    47    14    48    1
    48    14    49    1
    49    15    50    1
    50    15    51    1
    51    16    52    1
    52    16    53    1
    53    17    54    1
    54    17    55    1
    55    20    56    1
