@<TRIPOS>MOLECULE
ffa18
56 55 1 0 1
SMALL
USER_CHARGES
@<TRIPOS>CRYSIN
    7.6829     8.3642    28.2058    90.0000    90.0000    90.0000  1  1
@<TRIPOS>ATOM
       1 HL         -0.4856    -0.7483     3.7457 HL           1 ffa18      0.440000
       2 OCL         -0.0032    -0.0049     2.4985 OCL           1 ffa18     -0.610000
       3 OBL         -0.4825    -0.7434     1.2472 OBL           1 ffa18     -0.550000
       4 CL           0.0000     0.0000     0.0000 CL            1 ffa18      0.750000
       5 CTL2        -0.4793    -0.7386    -1.2513 CTL2          1 ffa18     -0.210000
       6 HAL2         0.0031     0.0048    -2.4985 HAL2          1 ffa18      0.090000
       7 HAL2        -0.4761    -0.7337    -3.7497 HAL2          1 ffa18      0.090000
       8 CTL2         0.0063     0.0097    -4.9969 CTL2          1 ffa18     -0.180000
       9 HAL2        -0.4730    -0.7289    -6.2482 HAL2          1 ffa18      0.090000
      10 HAL2         0.0094     0.0145    -7.4954 HAL2          1 ffa18      0.090000
      11 CTL2        -0.4698    -0.7240    -8.7467 CTL2          1 ffa18     -0.180000
      12 HAL2         0.0126     0.0194    -9.9939 HAL2          1 ffa18      0.090000
      13 HAL2        -0.4667    -0.7192   -11.2451 HAL2          1 ffa18      0.090000
      14 CTL2         0.0158     0.0243   -12.4923 CTL2          1 ffa18     -0.180000
      15 HAL2        -0.4636    -0.7142   -13.7436 HAL2          1 ffa18      0.090000
      16 HAL2         0.0189     0.0291   -14.9908 HAL2          1 ffa18      0.090000
      17 CTL2        -0.4604    -0.7093   -16.2421 CTL2          1 ffa18     -0.180000
      18 HAL2         0.0000     0.0000   -17.4322 HAL2          1 ffa18      0.090000
      19 HAL2        -0.2833    -0.4365   -18.5688 HAL2          1 ffa18      0.090000
      20 CTL2         0.7316     1.1274   -17.3053 CTL2          1 ffa18     -0.180000
      21 HAL2        -0.1441    -0.2221     4.6371 HAL2          1 ffa18      0.090000
      22 HAL2        -0.0816    -1.7607     3.7442 HAL2          1 ffa18      0.090000
      23 CTL2        -1.5748    -0.7917     3.7442 CTL2          1 ffa18     -0.180000
      24 HAL2        -0.4072     1.0074     2.5000 HAL2          1 ffa18      0.090000
      25 HAL2         1.0860     0.0385     2.5000 HAL2          1 ffa18      0.090000
      26 CTL2        -1.5716    -0.7868     1.2457 CTL2          1 ffa18     -0.180000
      27 HAL2        -0.0784    -1.7558     1.2457 HAL2          1 ffa18      0.090000
      28 HAL2        -0.4041     1.0124     0.0015 HAL2          1 ffa18      0.090000
      29 CTL2         1.0891     0.0433     0.0015 CTL2          1 ffa18     -0.180000
      30 HAL2        -1.5684    -0.7819    -1.2527 HAL2          1 ffa18      0.090000
      31 HAL2        -0.0754    -1.7509    -1.2527 HAL2          1 ffa18      0.090000
      32 CTL2        -0.4009     1.0172    -2.4970 CTL2          1 ffa18     -0.180000
      33 HAL2         1.0923     0.0482    -2.4970 HAL2          1 ffa18      0.090000
      34 HAL2        -1.5653    -0.7771    -3.7512 HAL2          1 ffa18      0.090000
      35 CTL2        -0.0722    -1.7460    -3.7512 CTL2          1 ffa18     -0.180000
      36 HAL2        -0.3977     1.0221    -4.9955 HAL2          1 ffa18      0.090000
      37 HAL2         1.0954     0.0531    -4.9955 HAL2          1 ffa18      0.090000
      38 CTL2        -1.5621    -0.7721    -6.2497 CTL2          1 ffa18     -0.180000
      39 HAL2        -0.0690    -1.7412    -6.2497 HAL2          1 ffa18      0.090000
      40 HAL2        -0.3946     1.0269    -7.4939 HAL2          1 ffa18      0.090000
      41 CTL2         1.0986     0.0579    -7.4939 CTL2          1 ffa18     -0.180000
      42 HAL2        -1.5590    -0.7673    -8.7482 HAL2          1 ffa18      0.090000
      43 HAL2        -0.0659    -1.7363    -8.7482 HAL2          1 ffa18      0.090000
      44 CTL2        -0.3914     1.0318    -9.9924 CTL2          1 ffa18     -0.180000
      45 HAL2         1.1017     0.0628    -9.9924 HAL2          1 ffa18      0.090000
      46 HAL2        -1.5558    -0.7624   -11.2466 HAL2          1 ffa18      0.090000
      47 CTL2        -0.0627    -1.7314   -11.2466 CTL2          1 ffa18     -0.180000
      48 HAL2        -0.3883     1.0366   -12.4909 HAL2          1 ffa18      0.090000
      49 HAL2         1.1049     0.0676   -12.4909 HAL2          1 ffa18      0.090000
      50 CTL2        -1.5527    -0.7576   -13.7451 CTL2          1 ffa18     -0.180000
      51 HAL2        -0.0596    -1.7266   -13.7451 HAL2          1 ffa18      0.090000
      52 HAL2        -0.3851     1.0415   -14.9893 HAL2          1 ffa18      0.090000
      53 CTL3         1.1081     0.0725   -14.9893 CTL3          1 ffa18     -0.270000
      54 HAL3        -1.5495    -0.7527   -16.2436 HAL3          1 ffa18      0.090000
      55 HAL3        -0.0564    -1.7217   -16.2436 HAL3          1 ffa18      0.090000
      56 HAL3         1.0407     1.6035   -18.1041 HAL3          1 ffa18      0.090000
@<TRIPOS>BOND
       1       35       38 1
       2       38       39 1
       3       50       52 1
       4        8       11 1
       5       44       47 1
       6       20       23 1
       7       14       16 1
       8       29       31 1
       9       29       30 1
      10       20       22 1
      11       26       29 1
      12       35       37 1
      13       32       34 1
      14       38       40 1
      15       32       35 1
      16       44       45 1
      17       11       12 1
      18       47       48 1
      19       53       55 1
      20       32       33 1
      21       17       19 1
      22       53       54 1
      23        8       10 1
      24       44       46 1
      25       17       18 1
      26        4        2 1
      27        5        8 1
      28       41       44 1
      29       50       53 1
      30       14       17 1
      31        3        4 1
      32       26       28 1
      33       41       42 1
      34        5        6 1
      35       50       51 1
      36       14       15 1
      37       29       32 1
      38       53       56 1
      39       35       36 1
      40       17       20 1
      41       11       14 1
      42       47       50 1
      43        5        4 1
      44        1        2 1
      45        8        9 1
      46       11       13 1
      47       47       49 1
      48       41       43 1
      49        5        7 1
      50       23       25 1
      51       20       21 1
      52       38       41 1
      53       23       24 1
      54       23       26 1
      55       26       27 1
@<TRIPOS>SUBSTRUCTURE
       1 ffa18           1 RESIDUE    0 **** ROOT      0
