@<TRIPOS>MOLECULE
ucer3
132 131 1 0 1
SMALL
NO_CHARGES
@<TRIPOS>CRYSIN
   12.1796     9.4373    38.0937    90.0000    90.0000    90.0000  1  1
@<TRIPOS>ATOM
       1 N1          -2.2727    -0.7090    -0.1323 NH1           1 ucer3   
       2 H2          -2.5624    -1.2079     0.6795 HN1           1 ucer3   
       3 C3          -2.6674    -1.1141    -1.3517 CLN           1 ucer3   
       4 O4          -3.3821    -2.0979    -1.4515 OBL           1 ucer3   
       5 C5          -2.2142    -0.3374    -2.5802 CTL2          1 ucer3   
       6 H6          -1.0773    -0.3390    -2.6446 HAL2          1 ucer3   
       7 H7          -2.5864     0.7064    -2.5016 HAL2          1 ucer3   
       8 C8          -2.8081    -1.0168    -3.8162 CTL2          1 ucer3   
       9 H9          -2.4448    -2.0663    -3.8777 HAL2          1 ucer3   
      10 H10         -3.9179    -1.0075    -3.7518 HAL2          1 ucer3   
      11 C11         -2.3593    -0.2450    -5.0558 CTL2          1 ucer3   
      12 H12         -2.7223     0.8054    -4.9912 HAL2          1 ucer3   
      13 H13         -1.2492    -0.2534    -5.1172 HAL2          1 ucer3   
      14 C14         -2.9462    -0.9126    -6.3025 CTL2          1 ucer3   
      15 H15         -2.5827    -1.9600    -6.3659 HAL2          1 ucer3   
      16 H16         -4.0542    -0.9035    -6.2411 HAL2          1 ucer3   
      17 C17         -2.4982    -0.1386    -7.5439 CTL2          1 ucer3   
      18 H18         -2.8600     0.9066    -7.4807 HAL2          1 ucer3   
      19 H19         -1.3895    -0.1488    -7.6074 HAL2          1 ucer3   
      20 C20         -3.0833    -0.8075    -8.7917 CTL2          1 ucer3   
      21 H21         -2.7219    -1.8546    -8.8561 HAL2          1 ucer3   
      22 H22         -4.1932    -0.7981    -8.7293 HAL2          1 ucer3   
      23 C23         -2.6367    -0.0363   -10.0343 CTL2          1 ucer3   
      24 H24         -2.9991     1.0120    -9.9708 HAL2          1 ucer3   
      25 H25         -1.5267    -0.0446   -10.0967 HAL2          1 ucer3   
      26 C26         -3.2227    -0.7040   -11.2810 CTL2          1 ucer3   
      27 H27         -2.8591    -1.7505   -11.3444 HAL2          1 ucer3   
      28 H28         -4.3315    -0.6938   -11.2196 HAL2          1 ucer3   
      29 C29         -2.7748     0.0690   -12.5235 CTL2          1 ucer3   
      30 H30         -3.1365     1.1152   -12.4602 HAL2          1 ucer3   
      31 H31         -1.6659     0.0598   -12.5849 HAL2          1 ucer3   
      32 C32         -3.3608    -0.5988   -13.7702 CTL2          1 ucer3   
      33 H33         -2.9984    -1.6470   -13.8336 HAL2          1 ucer3   
      34 H34         -4.4687    -0.5897   -13.7079 HAL2          1 ucer3   
      35 C35         -2.9123     0.1723   -15.0139 CTL2          1 ucer3   
      36 H36         -3.2745     1.2215   -14.9494 HAL2          1 ucer3   
      37 H37         -1.8020     0.1648   -15.0742 HAL2          1 ucer3   
      38 C38         -3.4990    -0.4945   -16.2595 CTL2          1 ucer3   
      39 H39         -3.1367    -1.5427   -16.3239 HAL2          1 ucer3   
      40 H40         -4.6080    -0.4863   -16.1971 HAL2          1 ucer3   
      41 C41         -3.0514     0.2766   -17.5021 CTL2          1 ucer3   
      42 H42         -3.4126     1.3257   -17.4376 HAL2          1 ucer3   
      43 H43         -1.9414     0.2683   -17.5645 HAL2          1 ucer3   
      44 C44         -3.6362    -0.3904   -18.7478 CTL2          1 ucer3   
      45 H45         -3.2749    -1.4384   -18.8122 HAL2          1 ucer3   
      46 H46         -4.7462    -0.3809   -18.6873 HAL2          1 ucer3   
      47 C47         -3.1895     0.3819   -19.9913 CTL2          1 ucer3   
      48 H48         -3.5519     1.4302   -19.9279 HAL2          1 ucer3   
      49 H49         -2.0804     0.3736   -20.0516 HAL2          1 ucer3   
      50 C50         -3.7764    -0.2858   -21.2370 CTL2          1 ucer3   
      51 H51         -3.4141    -1.3340   -21.3024 HAL2          1 ucer3   
      52 H52         -4.8855    -0.2775   -21.1756 HAL2          1 ucer3   
      53 C53         -3.3302     0.4835   -22.4816 CTL2          1 ucer3   
      54 H54         -3.6894     1.5313   -22.4153 HAL2          1 ucer3   
      55 H55         -2.2210     0.4752   -22.5409 HAL2          1 ucer3   
      56 C56         -3.9187    -0.1902   -23.7245 CTL2          1 ucer3   
      57 H57         -5.0254    -0.1928   -23.6318 HAL2          1 ucer3   
      58 H58         -3.5671    -1.2416   -23.7565 HAL2          1 ucer3   
      59 C59         -3.4943     0.5529   -24.9936 CTL2          1 ucer3   
      60 H60         -2.3857     0.5636   -25.0699 HAL2          1 ucer3   
      61 H61         -3.8388     1.6057   -24.9458 HAL2          1 ucer3   
      62 C62         -4.0778    -0.1111   -26.2412 CTL2          1 ucer3   
      63 H63         -5.1858    -0.1480   -26.1674 HAL2          1 ucer3   
      64 H64         -3.6983    -1.1527   -26.3211 HAL2          1 ucer3   
      65 C65         -3.6756     0.6782   -27.4886 CTL2          1 ucer3   
      66 H66         -2.5673     0.7124   -27.5696 HAL2          1 ucer3   
      67 H67         -4.0464     1.7225   -27.4049 HAL2          1 ucer3   
      68 C68         -4.2620     0.0260   -28.7425 CTL2          1 ucer3   
      69 H69         -5.3695    -0.0057   -28.6523 HAL2          1 ucer3   
      70 H70         -3.9016    -1.0209   -28.8087 HAL2          1 ucer3   
      71 C71         -3.8618     0.8027   -29.9965 CTL3          1 ucer3   
      72 H72         -4.2345     1.8460   -29.9268 HAL3          1 ucer3   
      73 H73         -4.3091     0.3075   -30.8855 HAL3          1 ucer3   
      74 H74         -2.7527     0.8103   -30.0931 HAL3          1 ucer3   
      75 C75         -1.4339     0.4430    -0.0002 CTL1          1 ucer3   
      76 H76         -1.6078     1.1690    -0.8240 HAL1          1 ucer3   
      77 C77         -1.7437     1.1739     1.3156 CTL2          1 ucer3   
      78 H78         -1.5065     0.4804     2.1512 HAL2          1 ucer3   
      79 H79         -1.0644     2.0453     1.4340 HAL2          1 ucer3   
      80 O80         -3.0954     1.6010     1.3597 OHL           1 ucer3   
      81 H81         -3.2695     2.0141     2.2082 HOL           1 ucer3   
      82 C82          0.0000     0.0000     0.0000 CTL1          1 ucer3   
      83 H83          0.0621    -1.1042    -0.1071 HAL1          1 ucer3   
      84 O84          0.7218     0.4209     1.1473 OHL           1 ucer3   
      85 H85          1.6365     0.1323     1.0980 HOL           1 ucer3   
      86 C86          0.7040     0.5415    -1.2096 CTL1          1 ucer3   
      87 H87          1.8101     0.6401    -0.9510 HAL1          1 ucer3   
      88 O88          0.1948     1.9418    -1.3933 OHL           1 ucer3   
      89 H89          0.7108     2.3394    -2.2798 HOL           1 ucer3   
      90 C90          0.6185    -0.0450    -2.4099 CTL2          1 ucer3   
      91 H91          1.5209    -0.7374    -2.4870 HAL2          1 ucer3   
      92 H92         -0.2973    -0.7227    -2.3938 HAL2          1 ucer3   
      93 C93          0.5815     0.7294    -3.6970 CTL2          1 ucer3   
      94 H94         -0.3211     1.3762    -3.7378 HAL2          1 ucer3   
      95 H95          1.4651     1.3939    -3.8095 HAL2          1 ucer3   
      96 C96          0.5454    -0.2145    -4.9014 CTL2          1 ucer3   
      97 H97          1.4703    -0.8283    -4.9532 HAL2          1 ucer3   
      98 H98         -0.3692    -0.8451    -4.8818 HAL2          1 ucer3   
      99 C99          0.4874     0.6706    -6.1462 CTL2          1 ucer3   
     100 H100        -0.4433     1.2737    -6.2302 HAL2          1 ucer3   
     101 H101         1.3943     1.2918    -6.3034 HAL2          1 ucer3   
     102 C102         0.4510    -0.3291    -7.3026 CTL2          1 ucer3   
     103 H103         1.3674    -0.9455    -7.4453 HAL2          1 ucer3   
     104 H104        -0.4600    -0.9619    -7.3745 HAL2          1 ucer3   
     105 C105         0.3938     0.5432    -8.5582 CTL2          1 ucer3   
     106 H106        -0.5265     1.1438    -8.7220 HAL2          1 ucer3   
     107 H107         1.2848     1.1613    -8.7940 HAL2          1 ucer3   
     108 C108         0.3562    -0.4332    -9.7343 CTL2          1 ucer3   
     109 H109         1.2558    -1.0536    -9.9346 HAL2          1 ucer3   
     110 H110        -0.5448    -1.0734    -9.8642 HAL2          1 ucer3   
     111 C111         0.2977     0.4072   -11.0127 CTL2          1 ucer3   
     112 H112        -0.6104     1.0149   -11.2097 HAL2          1 ucer3   
     113 H113         1.1757     1.0325   -11.2815 HAL2          1 ucer3   
     114 C114         0.2588    -0.5343   -12.2188 CTL2          1 ucer3   
     115 H115         1.1473    -1.1693   -12.4224 HAL2          1 ucer3   
     116 H116        -0.6294    -1.1852   -12.3500 HAL2          1 ucer3   
     117 C117         0.2006     0.2640   -13.5246 CTL2          1 ucer3   
     118 H118        -0.7020     0.8901   -13.6999 HAL2          1 ucer3   
     119 H119         1.0732     0.9080   -13.7691 HAL2          1 ucer3   
     120 C120         0.1610    -0.6409   -14.7548 CTL2          1 ucer3   
     121 H121         1.0503    -1.2894   -14.9120 HAL2          1 ucer3   
     122 H122        -0.7257    -1.3052   -14.8436 HAL2          1 ucer3   
     123 C123         0.1020     0.1327   -16.0709 CTL2          1 ucer3   
     124 H124        -0.8020     0.7703   -16.1893 HAL2          1 ucer3   
     125 H125         0.9781     0.7877   -16.2598 HAL2          1 ucer3   
     126 C126         0.0603    -0.7591   -17.3143 CTL2          1 ucer3   
     127 H127         0.9575    -1.4114   -17.3939 HAL2          1 ucer3   
     128 H128        -0.8230    -1.4330   -17.3206 HAL2          1 ucer3   
     129 C129         0.0000    -0.0000   -18.6402 CTL3          1 ucer3   
     130 H130        -0.0310    -0.6454   -19.5426 HAL3          1 ucer3   
     131 H131        -0.8996     0.6498   -18.6890 HAL3          1 ucer3   
     132 H132         0.8836     0.6691   -18.7444 HAL3          1 ucer3   
@<TRIPOS>BOND
       1       26       27 1
       2       86       87 1
       3       35       37 1
       4       96       98 1
       5       62       65 1
       6      123      126 1
       7       99      102 1
       8       38       41 1
       9       53       54 1
      10      114      115 1
      11       56       59 1
      12      117      120 1
      13       96       99 1
      14       35       38 1
      15       71       73 1
      16       82       86 1
      17       17       14 1
      18       90       91 1
      19        3        5 1
      20        3        4 1
      21      108      109 1
      22      120      121 1
      23       59       60 1
      24      102      105 1
      25       41       44 1
      26       47       48 1
      27       75       76 1
      28       29       31 1
      29       12       11 1
      30       53       55 1
      31      114      116 1
      32       90       92 1
      33       80       81 1
      34       11        8 1
      35       93       95 1
      36       68       70 1
      37      108      110 1
      38       47       49 1
      39       20       22 1
      40       99      101 1
      41       38       40 1
      42      114      117 1
      43       53       56 1
      44        3        1 1
      45      117      119 1
      46       26       29 1
      47       56       58 1
      48        8        5 1
      49       84       85 1
      50       75       82 1
      51       20       23 1
      52       75       77 1
      53       93       96 1
      54       68       71 1
      55       62       64 1
      56      123      125 1
      57       10        8 1
      58       29       32 1
      59       50       51 1
      60      111      112 1
      61      108      111 1
      62       47       50 1
      63      126      127 1
      64       65       66 1
      65       29       30 1
      66       17       20 1
      67      105      106 1
      68       44       45 1
      69       59       61 1
      70      120      122 1
      71      126      128 1
      72       65       67 1
      73       77       78 1
      74       50       53 1
      75      111      114 1
      76        1        2 1
      77       65       68 1
      78      126      129 1
      79       77       79 1
      80       17       18 1
      81       62       63 1
      82      123      124 1
      83      102      103 1
      84       41       42 1
      85       99      100 1
      86       38       39 1
      87       86       90 1
      88        6        5 1
      89       26       28 1
      90        7        5 1
      91       23       24 1
      92       13       11 1
      93       59       62 1
      94      120      123 1
      95       32       33 1
      96       86       88 1
      97       93       94 1
      98      129      130 1
      99       68       69 1
     100       82       83 1
     101      102      104 1
     102       41       43 1
     103       15       14 1
     104        1       75 1
     105       50       52 1
     106      111      113 1
     107       77       80 1
     108       71       74 1
     109       88       89 1
     110       14       11 1
     111      117      118 1
     112       56       57 1
     113      129      131 1
     114       35       36 1
     115       71       72 1
     116       96       97 1
     117       17       19 1
     118       20       21 1
     119       82       84 1
     120       16       14 1
     121       23       26 1
     122       90       93 1
     123      129      132 1
     124       23       25 1
     125      105      108 1
     126       44       47 1
     127        9        8 1
     128      105      107 1
     129       44       46 1
     130       32       35 1
     131       34       32 1
@<TRIPOS>SUBSTRUCTURE
       1 ucer3           1 RESIDUE    0 **** ROOT      0
