@<TRIPOS>MOLECULE
ucer2
129 128 1 0 1
SMALL
NO_CHARGES
@<TRIPOS>CRYSIN
   14.8679    12.0288    37.5544    90.0000    90.0000    90.0000  1  1
@<TRIPOS>ATOM
       1 NH1         -4.8609    -4.3891    29.2197 NH1           1 ucer2   
       2 HN1         -4.9837    -5.0691    29.9368 HN1           1 ucer2   
       3 CLN         -4.6454    -4.7762    27.9505 CLN           1 ucer2   
       4 OBL         -4.6015    -5.9671    27.6889 OBL           1 ucer2   
       5 CTL2        -4.4608    -3.7211    26.8685 CTL2          1 ucer2   
       6 HAL2        -3.5619    -3.0660    27.1127 HAL2          1 ucer2   
       7 HAL2        -5.3789    -3.0978    26.8156 HAL2          1 ucer2   
       8 CTL2        -4.2357    -4.4416    25.5374 CTL2          1 ucer2   
       9 HAL2        -3.3251    -5.0769    25.6046 HAL2          1 ucer2   
      10 HAL2        -5.1180    -5.0751    25.3005 HAL2          1 ucer2   
      11 CTL2        -4.0490    -3.3915    24.4437 CTL2          1 ucer2   
      12 HAL2        -4.9605    -2.7558    24.3795 HAL2          1 ucer2   
      13 HAL2        -3.1677    -2.7576    24.6836 HAL2          1 ucer2   
      14 CTL2        -3.8228    -4.0972    23.1038 CTL2          1 ucer2   
      15 HAL2        -2.9129    -4.7304    23.1692 HAL2          1 ucer2   
      16 HAL2        -4.7029    -4.7292    22.8644 HAL2          1 ucer2   
      17 CTL2        -3.6376    -3.0454    22.0081 CTL2          1 ucer2   
      18 HAL2        -4.5448    -2.4130    21.9431 HAL2          1 ucer2   
      19 HAL2        -2.7558    -2.4135    22.2457 HAL2          1 ucer2   
      20 CTL2        -3.4091    -3.7509    20.6676 CTL2          1 ucer2   
      21 HAL2        -2.5007    -4.3849    20.7316 HAL2          1 ucer2   
      22 HAL2        -4.2910    -4.3840    20.4287 HAL2          1 ucer2   
      23 CTL2        -3.2231    -2.7021    19.5705 CTL2          1 ucer2   
      24 HAL2        -4.1326    -2.0675    19.5054 HAL2          1 ucer2   
      25 HAL2        -2.3416    -2.0680    19.8094 HAL2          1 ucer2   
      26 CTL2        -2.9960    -3.4072    18.2308 CTL2          1 ucer2   
      27 HAL2        -2.0866    -4.0396    18.2962 HAL2          1 ucer2   
      28 HAL2        -3.8775    -4.0389    17.9913 HAL2          1 ucer2   
      29 CTL2        -2.8102    -2.3562    17.1341 CTL2          1 ucer2   
      30 HAL2        -3.7179    -1.7229    17.0691 HAL2          1 ucer2   
      31 HAL2        -1.9292    -1.7237    17.3737 HAL2          1 ucer2   
      32 CTL2        -2.5831    -3.0614    15.7944 CTL2          1 ucer2   
      33 HAL2        -1.6736    -3.6960    15.8595 HAL2          1 ucer2   
      34 HAL2        -3.4634    -3.6936    15.5560 HAL2          1 ucer2   
      35 CTL2        -2.3953    -2.0115    14.6968 CTL2          1 ucer2   
      36 HAL2        -3.3055    -1.3762    14.6327 HAL2          1 ucer2   
      37 HAL2        -1.5146    -1.3769    14.9377 HAL2          1 ucer2   
      38 CTL2        -2.1697    -2.7165    13.3579 CTL2          1 ucer2   
      39 HAL2        -1.2600    -3.3509    13.4220 HAL2          1 ucer2   
      40 HAL2        -3.0504    -3.3500    13.1192 HAL2          1 ucer2   
      41 CTL2        -1.9829    -1.6672    12.2610 CTL2          1 ucer2   
      42 HAL2        -2.8922    -1.0314    12.1972 HAL2          1 ucer2   
      43 HAL2        -1.1014    -1.0332    12.4999 HAL2          1 ucer2   
      44 CTL2        -1.7557    -2.3712    10.9226 CTL2          1 ucer2   
      45 HAL2        -0.8468    -3.0061    10.9865 HAL2          1 ucer2   
      46 HAL2        -2.6373    -3.0040    10.6818 HAL2          1 ucer2   
      47 CTL2        -1.5700    -1.3214     9.8246 CTL2          1 ucer2   
      48 HAL2        -2.4795    -0.6868     9.7595 HAL2          1 ucer2   
      49 HAL2        -0.6897    -0.6881    10.0652 HAL2          1 ucer2   
      50 CTL2        -1.3440    -2.0272     8.4856 CTL2          1 ucer2   
      51 HAL2        -0.4341    -2.6615     8.5488 HAL2          1 ucer2   
      52 HAL2        -2.2244    -2.6606     8.2460 HAL2          1 ucer2   
      53 CTL2        -1.1567    -0.9798     7.3865 CTL2          1 ucer2   
      54 HAL2        -2.0641    -0.3443     7.3250 HAL2          1 ucer2   
      55 HAL2        -0.2766    -0.3467     7.6281 HAL2          1 ucer2   
      56 CTL2        -0.9291    -1.6918     6.0499 CTL2          1 ucer2   
      57 HAL2        -1.8086    -2.3369     5.8414 HAL2          1 ucer2   
      58 HAL2        -0.0334    -2.3393     6.1425 HAL2          1 ucer2   
      59 CTL2        -0.7377    -0.6748     4.9221 CTL2          1 ucer2   
      60 HAL2         0.1348    -0.0242     5.1467 HAL2          1 ucer2   
      61 HAL2        -1.6323    -0.0242     4.8466 HAL2          1 ucer2   
      62 CTL2        -0.5107    -1.3754     3.5821 CTL2          1 ucer2   
      63 HAL2        -1.3669    -2.0465     3.3560 HAL2          1 ucer2   
      64 HAL2         0.4120    -1.9926     3.6357 HAL2          1 ucer2   
      65 CTL2        -0.3687    -0.3366     2.4679 CTL2          1 ucer2   
      66 HAL2         0.4909     0.3335     2.6872 HAL2          1 ucer2   
      67 HAL2        -1.2872     0.2872     2.4201 HAL2          1 ucer2   
      68 CTL2        -0.1494    -1.0284     1.1208 CTL2          1 ucer2   
      69 HAL2        -1.0120    -1.6973     0.9103 HAL2          1 ucer2   
      70 HAL2         0.7584    -1.6626     1.1826 HAL2          1 ucer2   
      71 CTL3         0.0000     0.0000     0.0000 CTL3          1 ucer2   
      72 HAL3        -0.9161     0.6238    -0.0617 HAL3          1 ucer2   
      73 HAL3         0.1502    -0.5351    -0.9627 HAL3          1 ucer2   
      74 HAL3         0.8794     0.6511     0.2053 HAL3          1 ucer2   
      75 CTL1        -4.9144    -2.9956    29.5411 CTL1          1 ucer2   
      76 HAL1        -5.2817    -2.3939    28.6814 HAL1          1 ucer2   
      77 CTL2        -5.8901    -2.7590    30.7045 CTL2          1 ucer2   
      78 HAL2        -5.4954    -3.2997    31.5917 HAL2          1 ucer2   
      79 HAL2        -5.9000    -1.6819    30.9775 HAL2          1 ucer2   
      80 OHL         -7.2000    -3.1887    30.3715 OHL           1 ucer2   
      81 HOL         -7.7752    -3.0687    31.1302 HOL           1 ucer2   
      82 CTL1        -3.5417    -2.5379    29.9393 CTL1          1 ucer2   
      83 HAL1        -2.8224    -3.3829    29.8831 HAL1          1 ucer2   
      84 OHL         -3.4955    -1.9419    31.2266 OHL           1 ucer2   
      85 HOL         -2.6048    -1.6481    31.4332 HOL           1 ucer2   
      86 CEL1        -3.0290    -1.5332    28.9495 CEL1          1 ucer2   
      87 HEL1        -2.2882    -0.8584    29.4934 HEL1          1 ucer2   
      88 CEL1        -2.4718    -1.8936    27.7869 CEL1          1 ucer2   
      89 HEL1        -1.3479    -1.9304    27.9746 HEL1          1 ucer2   
      90 CTL2        -2.6528    -1.1117    26.5168 CTL2          1 ucer2   
      91 HAL2        -3.7226    -1.0960    26.2169 HAL2          1 ucer2   
      92 HAL2        -2.3291    -0.0545    26.6281 HAL2          1 ucer2   
      93 CTL2        -1.8471    -1.7332    25.3733 CTL2          1 ucer2   
      94 HAL2        -0.7577    -1.6969    25.5892 HAL2          1 ucer2   
      95 HAL2        -2.1931    -2.7681    25.1633 HAL2          1 ucer2   
      96 CTL2        -2.1190    -0.8793    24.1351 CTL2          1 ucer2   
      97 HAL2        -3.1750    -0.9092    23.7873 HAL2          1 ucer2   
      98 HAL2        -1.7415     0.1622    24.2109 HAL2          1 ucer2   
      99 CTL2        -0.4768    -1.1254    23.1775 CTL2          1 ucer2   
     100 HAL2        -0.1865    -1.5109    23.1654 HAL2          1 ucer2   
     101 HAL2        -1.6127    -2.5747    22.7422 HAL2          1 ucer2   
     102 CTL2        -1.5536    -0.7072    21.7914 CTL2          1 ucer2   
     103 HAL2        -2.5814    -0.7223    21.3696 HAL2          1 ucer2   
     104 HAL2        -1.1681     0.3334    21.7873 HAL2          1 ucer2   
     105 CTL2        -0.7367    -1.3598    20.6757 CTL2          1 ucer2   
     106 HAL2         0.3718    -1.3230    20.7419 HAL2          1 ucer2   
     107 HAL2        -1.0314    -2.3743    20.3256 HAL2          1 ucer2   
     108 CTL2        -0.9750    -0.5378    19.4063 CTL2          1 ucer2   
     109 HAL2        -1.9897    -0.5357    18.9555 HAL2          1 ucer2   
     110 HAL2        -0.5962     0.5058    19.3667 HAL2          1 ucer2   
     111 CTL2        -0.1725    -1.1587    18.2603 CTL2          1 ucer2   
     112 HAL2         0.9366    -1.1396    18.3208 HAL2          1 ucer2   
     113 HAL2        -0.4508    -2.1744    17.9128 HAL2          1 ucer2   
     114 CTL2        -0.3796    -0.3670    16.9658 CTL2          1 ucer2   
     115 HAL2        -1.4058    -0.3497    16.5370 HAL2          1 ucer2   
     116 HAL2        -0.0216     0.6854    16.9477 HAL2          1 ucer2   
     117 CTL2         0.4066    -0.9553    15.7955 CTL2          1 ucer2   
     118 HAL2         1.5134    -0.9529    15.9012 HAL2          1 ucer2   
     119 HAL2         0.1274    -1.9867    15.4895 HAL2          1 ucer2   
     120 CTL2         0.2158    -0.1825    14.4915 CTL2          1 ucer2   
     121 HAL2        -0.8317    -0.1645    14.1167 HAL2          1 ucer2   
     122 HAL2         0.5570     0.8732    14.5275 HAL2          1 ucer2   
     123 CTL2         0.9957    -0.7598    13.3075 CTL2          1 ucer2   
     124 HAL2         2.0927    -0.7666    13.4902 HAL2          1 ucer2   
     125 HAL2         0.7055    -1.8082    13.0821 HAL2          1 ucer2   
     126 CTL3         0.8146     0.0018    11.9942 CTL3          1 ucer2   
     127 HAL3         1.3791    -0.4160    11.1346 HAL3          1 ucer2   
     128 HAL3        -0.2528     0.0227    11.6873 HAL3          1 ucer2   
     129 HAL3         1.1337     1.0617    12.1133 HAL3          1 ucer2   
@<TRIPOS>BOND
       1       93       94 1
       2      123      124 1
       3       68       71 1
       4       53       50 1
       5       23       26 1
       6      123      126 1
       7       88       86 1
       8       96       98 1
       9       75        1 1
      10       52       50 1
      11       47       49 1
      12       23       24 1
      13       99      100 1
      14      102      103 1
      15       11       12 1
      16      105      107 1
      17       38       41 1
      18       68       69 1
      19       96       99 1
      20      120      122 1
      21      108      110 1
      22       32       29 1
      23       59       61 1
      24       71       72 1
      25       35       37 1
      26      117      119 1
      27        5        8 1
      28       26       29 1
      29       90       91 1
      30       14       15 1
      31      126      127 1
      32       44       46 1
      33       71       74 1
      34       47       48 1
      35      114      117 1
      36       14       16 1
      37       99      102 1
      38      120      123 1
      39       35       38 1
      40      117      120 1
      41       75       82 1
      42       38       40 1
      43      123      125 1
      44       86       87 1
      45       50       51 1
      46      102      104 1
      47       44       47 1
      48      102      105 1
      49       62       65 1
      50      108      111 1
      51       56       57 1
      52       99      101 1
      53       23       25 1
      54      111      114 1
      55       65       68 1
      56       26       28 1
      57        5        7 1
      58       88       89 1
      59        8        9 1
      60       77       80 1
      61       90       92 1
      62      126      128 1
      63       11       14 1
      64       20       21 1
      65       71       73 1
      66       65       67 1
      67       29       30 1
      68       93       96 1
      69       17       20 1
      70      105      106 1
      71       53       55 1
      72        3        1 1
      73       77       78 1
      74       42       41 1
      75       17       18 1
      76       20       23 1
      77        8       10 1
      78       33       32 1
      79       35       36 1
      80       93       95 1
      81       17       19 1
      82      117      118 1
      83      114      115 1
      84       56       58 1
      85      111      113 1
      86       75       77 1
      87       82       83 1
      88       77       79 1
      89        3        4 1
      90       56       59 1
      91       20       22 1
      92      111      112 1
      93        5        6 1
      94       75       76 1
      95       14       17 1
      96       82       84 1
      97        8       11 1
      98       47       50 1
      99       62       63 1
     100       88       90 1
     101       59       60 1
     102      105      108 1
     103      114      116 1
     104       82       86 1
     105       38       39 1
     106       84       85 1
     107      120      121 1
     108       41       43 1
     109       31       29 1
     110       96       97 1
     111        2        1 1
     112       53       54 1
     113        3        5 1
     114       80       81 1
     115       44       45 1
     116       68       70 1
     117       35       32 1
     118      108      109 1
     119       90       93 1
     120       62       64 1
     121      126      129 1
     122       59       62 1
     123       26       27 1
     124       65       66 1
     125       34       32 1
     126       41       44 1
     127       11       13 1
     128       53       56 1
@<TRIPOS>SUBSTRUCTURE
       1 ucer2           1 RESIDUE    0 **** ROOT      0
