@<TRIPOS>MOLECULE
ffa20
62 61 1 0 1
SMALL
USER_CHARGES
@<TRIPOS>CRYSIN
    7.8385     8.4578    31.5547    90.0000    90.0000    90.0000  1  1
@<TRIPOS>ATOM
       1 HL         -0.0338    -0.0783     1.8758 HL           1 ffa20      0.440000
       2 OCL         -0.2854    -0.6620     1.1631 OCL           1 ffa20     -0.610000
       3 OBL          0.4828     1.1193     0.0326 OBL           1 ffa20     -0.550000
       4 CL           0.0000     0.0000     0.0000 CL            1 ffa20      0.750000
       5 CTL2        -0.3453    -0.8010    -1.2386 CTL2          1 ffa20     -0.210000
       6 HAL2        -1.4299    -1.0370    -1.2332 HAL2          1 ffa20      0.090000
       7 HAL2         0.2287    -1.7523    -1.2330 HAL2          1 ffa20      0.090000
       8 CTL2         0.0093     0.0211    -2.4824 CTL2          1 ffa20     -0.180000
       9 HAL2         1.0973     0.2710    -2.4814 HAL2          1 ffa20      0.090000
      10 HAL2        -0.5549     0.9834    -2.4818 HAL2          1 ffa20      0.090000
      11 CTL2        -0.3144    -0.7296    -3.7642 CTL2          1 ffa20     -0.180000
      12 HAL2        -1.4001    -0.9742    -3.7961 HAL2          1 ffa20      0.090000
      13 HAL2         0.2540    -1.6871    -3.7958 HAL2          1 ffa20      0.090000
      14 CTL2         0.0488     0.1116    -4.9798 CTL2          1 ffa20     -0.180000
      15 HAL2         1.1348     0.3586    -4.9538 HAL2          1 ffa20      0.090000
      16 HAL2        -0.5164     1.0708    -4.9543 HAL2          1 ffa20      0.090000
      17 CTL2        -0.2718    -0.6313    -6.2652 CTL2          1 ffa20     -0.180000
      18 HAL2        -1.3576    -0.8770    -6.2936 HAL2          1 ffa20      0.090000
      19 HAL2         0.2956    -1.5897    -6.2932 HAL2          1 ffa20      0.090000
      20 CTL2         0.0911     0.2082    -7.4792 CTL2          1 ffa20     -0.180000
      21 HAL2         1.1768     0.4544    -7.4529 HAL2          1 ffa20      0.090000
      22 HAL2        -0.4763     1.1671    -7.4533 HAL2          1 ffa20      0.090000
      23 CTL2        -0.2314    -0.5378    -8.7624 CTL2          1 ffa20     -0.180000
      24 HAL2        -1.3171    -0.7840    -8.7887 HAL2          1 ffa20      0.090000
      25 HAL2         0.3360    -1.4967    -8.7883 HAL2          1 ffa20      0.090000
      26 CTL2         0.1299     0.2999    -9.9768 CTL2          1 ffa20     -0.180000
      27 HAL2         1.2166     0.5457    -9.9506 HAL2          1 ffa20      0.090000
      28 HAL2        -0.4365     1.2585    -9.9509 HAL2          1 ffa20      0.090000
      29 CTL2        -0.1917    -0.4471   -11.2589 CTL2          1 ffa20     -0.180000
      30 HAL2        -1.2776    -0.6942   -11.2849 HAL2          1 ffa20      0.090000
      31 HAL2         0.3748    -1.4057   -11.2847 HAL2          1 ffa20      0.090000
      32 CTL2         0.1696     0.3905   -12.4732 CTL2          1 ffa20     -0.180000
      33 HAL2         1.2553     0.6367   -12.4469 HAL2          1 ffa20      0.090000
      34 HAL2        -0.3968     1.3491   -12.4474 HAL2          1 ffa20      0.090000
      35 CTL2        -0.1521    -0.3567   -13.7563 CTL2          1 ffa20     -0.180000
      36 HAL2        -1.2390    -0.6035   -13.7822 HAL2          1 ffa20      0.090000
      37 HAL2         0.4143    -1.3153   -13.7821 HAL2          1 ffa20      0.090000
      38 CTL2         0.2090     0.4807   -14.9716 CTL2          1 ffa20     -0.180000
      39 HAL2         1.2949     0.7271   -14.9443 HAL2          1 ffa20      0.090000
      40 HAL2        -0.3582     1.4398   -14.9447 HAL2          1 ffa20      0.090000
      41 CTL2        -0.1126    -0.2658   -16.2558 CTL2          1 ffa20     -0.180000
      42 HAL2        -1.1992    -0.5121   -16.2798 HAL2          1 ffa20      0.090000
      43 HAL2         0.4537    -1.2251   -16.2804 HAL2          1 ffa20      0.090000
      44 CTL2         0.2485     0.5716   -17.4711 CTL2          1 ffa20     -0.180000
      45 HAL2         1.3345     0.8183   -17.4430 HAL2          1 ffa20      0.090000
      46 HAL2        -0.3186     1.5310   -17.4433 HAL2          1 ffa20      0.090000
      47 CTL2        -0.0726    -0.1727   -18.7582 CTL2          1 ffa20     -0.180000
      48 HAL2        -1.1583    -0.4192   -18.7823 HAL2          1 ffa20      0.090000
      49 HAL2         0.4938    -1.1317   -18.7818 HAL2          1 ffa20      0.090000
      50 CTL2         0.2884     0.6656   -19.9779 CTL2          1 ffa20     -0.180000
      51 HAL2         1.3744     0.9112   -19.9462 HAL2          1 ffa20      0.090000
      52 HAL2        -0.2778     1.6236   -19.9467 HAL2          1 ffa20      0.090000
      53 CTL2        -0.0320    -0.0787   -21.2681 CTL2          1 ffa20     -0.180000
      54 HAL2        -1.1177    -0.3269   -21.2866 HAL2          1 ffa20      0.090000
      55 HAL2         0.5338    -1.0381   -21.2863 HAL2          1 ffa20      0.090000
      56 CTL2         0.3228     0.7452   -22.5020 CTL2          1 ffa20     -0.180000
      57 HAL2         1.4086     0.9934   -22.4689 HAL2          1 ffa20      0.090000
      58 HAL2        -0.2415     1.7055   -22.4685 HAL2          1 ffa20      0.090000
      59 CTL3        -0.0000     0.0000   -23.7937 CTL3          1 ffa20     -0.270000
      60 HAL3        -1.0848    -0.2396   -23.8333 HAL3          1 ffa20      0.090000
      61 HAL3         0.5699    -0.9533   -23.8350 HAL3          1 ffa20      0.090000
      62 HAL3         0.2648     0.6154   -24.6789 HAL3          1 ffa20      0.090000
@<TRIPOS>BOND
       1       41       38 1
       2       26       23 1
       3       49       47 1
       4       15       14 1
       5       54       53 1
       6       14       11 1
       7       17       14 1
       8       32       29 1
       9       44       41 1
      10       33       32 1
      11       53       50 1
      12       11        8 1
      13       50       47 1
      14       22       20 1
      15       56       53 1
      16       28       26 1
      17       47       44 1
      18        5        4 1
      19        4        3 1
      20       10        8 1
      21       60       59 1
      22       45       44 1
      23       42       41 1
      24       12       11 1
      25       57       56 1
      26       27       26 1
      27       21       20 1
      28       31       29 1
      29       36       35 1
      30       29       26 1
      31       37       35 1
      32       35       32 1
      33       58       56 1
      34       40       38 1
      35       20       17 1
      36        2        1 1
      37       52       50 1
      38       34       32 1
      39       30       29 1
      40       18       17 1
      41       24       23 1
      42       13       11 1
      43       59       56 1
      44        8        5 1
      45       38       35 1
      46       62       59 1
      47       43       41 1
      48       61       59 1
      49       23       20 1
      50        4        2 1
      51       46       44 1
      52       25       23 1
      53       48       47 1
      54        9        8 1
      55        7        5 1
      56       39       38 1
      57        6        5 1
      58       55       53 1
      59       19       17 1
      60       51       50 1
      61       16       14 1
@<TRIPOS>SUBSTRUCTURE
       1 ffa20           1 RESIDUE    0 **** ROOT      0
