@<TRIPOS>MOLECULE
oh16
51 50 1 0 1
SMALL
NO_CHARGES
@<TRIPOS>CRYSIN
    8.0874     8.4288    26.6897    90.0000    90.0000    90.0000  1  1
@<TRIPOS>ATOM
       1 C8          -0.2498    -0.3930    -8.8456 CG321         1 oh16    
       2 C9           0.2448     0.3813   -10.0564 CG321         1 oh16    
       3 H16          0.1551    -1.4312    -8.8768 HGA2          1 oh16    
       4 H17         -1.3620    -0.4625    -8.8770 HGA2          1 oh16    
       5 H18          1.3569     0.4508   -10.0250 HGA2          1 oh16    
       6 H19         -0.1602     1.4195   -10.0252 HGA2          1 oh16    
       7 C10         -0.1857    -0.2930   -11.3502 CG321         1 oh16    
       8 C11          0.3091     0.4816   -12.5623 CG321         1 oh16    
       9 H21         -1.2976    -0.3621   -11.3807 HGA2          1 oh16    
      10 H20          0.2195    -1.3308   -11.3805 HGA2          1 oh16    
      11 H23          1.4217     0.5517   -12.5279 HGA2          1 oh16    
      12 H22         -0.0954     1.5204   -12.5281 HGA2          1 oh16    
      13 C12         -0.1191    -0.1893   -13.8588 CG321         1 oh16    
      14 C13          0.3742     0.5831   -15.0752 CG321         1 oh16    
      15 H24         -1.2316    -0.2592   -13.8874 HGA2          1 oh16    
      16 H25          0.2855    -1.2280   -13.8872 HGA2          1 oh16    
      17 H27          1.4866     0.6529   -15.0393 HGA2          1 oh16    
      18 H26         -0.0305     1.6216   -15.0395 HGA2          1 oh16    
      19 C14         -0.0544    -0.0884   -16.3747 CG321         1 oh16    
      20 C15          0.4297     0.6714   -17.6061 CG321         1 oh16    
      21 H29         -1.1669    -0.1602   -16.3964 HGA2          1 oh16    
      22 H28          0.3487    -1.1276   -16.3976 HGA2          1 oh16    
      23 H30          1.5421     0.7429   -17.5700 HGA2          1 oh16    
      24 H31          0.0278     1.7105   -17.5693 HGA2          1 oh16    
      25 C16          0.0000     0.0000   -18.9065 CG331         1 oh16    
      26 H32         -1.1092    -0.0630   -18.9566 HGA3          1 oh16    
      27 H33          0.4092    -1.0333   -18.9572 HGA3          1 oh16    
      28 H34          0.3647     0.5710   -19.7852 HGA3          1 oh16    
      29 C7           0.1803     0.2809    -7.5527 CG321         1 oh16    
      30 C6          -0.3144    -0.4937    -6.3405 CG321         1 oh16    
      31 H14         -0.2244     1.3194    -7.5229 HGA2          1 oh16    
      32 H15          1.2927     0.3506    -7.5227 HGA2          1 oh16    
      33 H12          0.0904    -1.5321    -6.3739 HGA2          1 oh16    
      34 H13         -1.4267    -0.5633    -6.3741 HGA2          1 oh16    
      35 C5           0.1142     0.1778    -5.0446 CG321         1 oh16    
      36 C4          -0.3791    -0.5945    -3.8282 CG321         1 oh16    
      37 H10         -0.2907     1.2161    -5.0170 HGA2          1 oh16    
      38 H11          1.2264     0.2474    -5.0168 HGA2          1 oh16    
      39 H8           0.0254    -1.6333    -3.8625 HGA2          1 oh16    
      40 H9          -1.4917    -0.6646    -3.8627 HGA2          1 oh16    
      41 C3           0.0517     0.0805    -2.5314 CG321         1 oh16    
      42 C2          -0.4340    -0.6799    -1.2967 CG321         1 oh16    
      43 H6          -0.3532     1.1187    -2.5132 HGA2          1 oh16    
      44 H7           1.1639     0.1500    -2.5130 HGA2          1 oh16    
      45 H4          -0.0315    -1.7183    -1.3246 HGA2          1 oh16    
      46 H5          -1.5453    -0.7517    -1.3248 HGA2          1 oh16    
      47 C1           0.0000     0.0000     0.0000 CG321         1 oh16    
      48 O           -0.4817    -0.7541     1.1053 OG311         1 oh16    
      49 H2          -0.4157     1.0325     0.0332 HGA2          1 oh16    
      50 H3           1.1115     0.0573     0.0334 HGA2          1 oh16    
      51 H1          -0.1943    -0.3040     1.9045 HGP1          1 oh16    
@<TRIPOS>BOND
       1       32       29 1
       2       48       47 1
       3       36       40 1
       4        2        6 1
       5       35       38 1
       6       21       19 1
       7       27       25 1
       8        8       12 1
       9        3        1 1
      10       50       47 1
      11       36       39 1
      12       24       20 1
      13       14       17 1
      14       22       19 1
      15       13       14 1
      16        8       13 1
      17       28       25 1
      18       26       25 1
      19       30       35 1
      20       42       45 1
      21       49       47 1
      22       35       36 1
      23       30       29 1
      24       20       19 1
      25       13       16 1
      26       42       47 1
      27       25       20 1
      28       14       19 1
      29       30       34 1
      30        1       29 1
      31        7       10 1
      32       42       46 1
      33        2        5 1
      34       35       37 1
      35       14       18 1
      36       30       33 1
      37       41       43 1
      38       13       15 1
      39       41       44 1
      40        2        1 1
      41        1        4 1
      42       51       48 1
      43       36       41 1
      44        7        8 1
      45       31       29 1
      46       23       20 1
      47        8       11 1
      48        2        7 1
      49       41       42 1
      50        7        9 1
@<TRIPOS>SUBSTRUCTURE
       1 oh16            1 RESIDUE    0 **** ROOT      0
