@<TRIPOS>MOLECULE
oh16
51 50 1 0 1
SMALL
USER_CHARGES
@<TRIPOS>CRYSIN
    8.0873     8.4288    26.6897    90.0000    90.0000    90.0000  1  1
@<TRIPOS>ATOM
       1 CG321       -0.2498    -0.3930    -8.8456 CG321         1 oh16      -0.180000
       2 CG321        0.2448     0.3813   -10.0564 CG321         1 oh16      -0.180000
       3 HGA2         0.1551    -1.4312    -8.8768 HGA2          1 oh16       0.090000
       4 HGA2        -1.3620    -0.4625    -8.8770 HGA2          1 oh16       0.090000
       5 HGA2         1.3569     0.4508   -10.0250 HGA2          1 oh16       0.090000
       6 HGA2        -0.1602     1.4195   -10.0252 HGA2          1 oh16       0.090000
       7 CG321       -0.1857    -0.2930   -11.3502 CG321         1 oh16      -0.180000
       8 CG321        0.3091     0.4816   -12.5623 CG321         1 oh16      -0.180000
       9 HGA2        -1.2976    -0.3621   -11.3807 HGA2          1 oh16       0.090000
      10 HGA2         0.2195    -1.3308   -11.3805 HGA2          1 oh16       0.090000
      11 HGA2         1.4217     0.5517   -12.5279 HGA2          1 oh16       0.090000
      12 HGA2        -0.0954     1.5204   -12.5281 HGA2          1 oh16       0.090000
      13 CG321       -0.1191    -0.1893   -13.8588 CG321         1 oh16      -0.180000
      14 CG321        0.3742     0.5831   -15.0752 CG321         1 oh16      -0.180000
      15 HGA2        -1.2316    -0.2592   -13.8874 HGA2          1 oh16       0.090000
      16 HGA2         0.2855    -1.2280   -13.8872 HGA2          1 oh16       0.090000
      17 HGA2         1.4866     0.6529   -15.0393 HGA2          1 oh16       0.090000
      18 HGA2        -0.0305     1.6216   -15.0395 HGA2          1 oh16       0.090000
      19 CG321       -0.0544    -0.0884   -16.3747 CG321         1 oh16      -0.180000
      20 CG321        0.4297     0.6714   -17.6061 CG321         1 oh16      -0.180000
      21 HGA2        -1.1669    -0.1602   -16.3964 HGA2          1 oh16       0.090000
      22 HGA2         0.3487    -1.1276   -16.3976 HGA2          1 oh16       0.090000
      23 HGA2         1.5421     0.7429   -17.5700 HGA2          1 oh16       0.090000
      24 HGA2         0.0278     1.7105   -17.5693 HGA2          1 oh16       0.090000
      25 CG331        0.0000     0.0000   -18.9065 CG331         1 oh16      -0.270000
      26 HGA3        -1.1092    -0.0630   -18.9566 HGA3          1 oh16       0.090000
      27 HGA3         0.4092    -1.0333   -18.9572 HGA3          1 oh16       0.090000
      28 HGA3         0.3647     0.5710   -19.7852 HGA3          1 oh16       0.090000
      29 CG321        0.1803     0.2809    -7.5527 CG321         1 oh16      -0.180000
      30 CG321       -0.3144    -0.4937    -6.3405 CG321         1 oh16      -0.180000
      31 HGA2        -0.2244     1.3194    -7.5229 HGA2          1 oh16       0.090000
      32 HGA2         1.2927     0.3506    -7.5227 HGA2          1 oh16       0.090000
      33 HGA2         0.0904    -1.5321    -6.3739 HGA2          1 oh16       0.090000
      34 HGA2        -1.4267    -0.5633    -6.3741 HGA2          1 oh16       0.090000
      35 CG321        0.1142     0.1778    -5.0446 CG321         1 oh16      -0.180000
      36 CG321       -0.3791    -0.5945    -3.8282 CG321         1 oh16      -0.180000
      37 HGA2        -0.2907     1.2161    -5.0170 HGA2          1 oh16       0.090000
      38 HGA2         1.2264     0.2474    -5.0168 HGA2          1 oh16       0.090000
      39 HGA2         0.0254    -1.6333    -3.8625 HGA2          1 oh16       0.090000
      40 HGA2        -1.4917    -0.6646    -3.8627 HGA2          1 oh16       0.090000
      41 CG321        0.0517     0.0805    -2.5314 CG321         1 oh16      -0.180000
      42 CG321       -0.4340    -0.6799    -1.2967 CG321         1 oh16      -0.181000
      43 HGA2        -0.3532     1.1187    -2.5132 HGA2          1 oh16       0.090000
      44 HGA2         1.1639     0.1500    -2.5130 HGA2          1 oh16       0.090000
      45 HGA2        -0.0315    -1.7183    -1.3246 HGA2          1 oh16       0.090000
      46 HGA2        -1.5453    -0.7517    -1.3248 HGA2          1 oh16       0.090000
      47 CG321        0.0000     0.0000     0.0000 CG321         1 oh16       0.051000
      48 OG311       -0.4817    -0.7541     1.1053 OG311         1 oh16      -0.650000
      49 HGA2        -0.4157     1.0325     0.0332 HGA2          1 oh16       0.090000
      50 HGA2         1.1115     0.0573     0.0334 HGA2          1 oh16       0.090000
      51 HGP1        -0.1943    -0.3040     1.9045 HGP1          1 oh16       0.420000
@<TRIPOS>BOND
       1        8        7 1
       2       16       13 1
       3       38       35 1
       4       46       42 1
       5       25       20 1
       6       17       14 1
       7       50       47 1
       8       18       14 1
       9       36       35 1
      10       35       30 1
      11       29        1 1
      12       15       13 1
      13       32       29 1
      14       33       30 1
      15       14       13 1
      16       31       29 1
      17       49       47 1
      18       48       47 1
      19       30       29 1
      20        2        1 1
      21        6        2 1
      22       41       36 1
      23        3        1 1
      24        4        1 1
      25       24       20 1
      26       22       19 1
      27       28       25 1
      28       40       36 1
      29       11        8 1
      30       43       41 1
      31       39       36 1
      32       23       20 1
      33       21       19 1
      34       34       30 1
      35       27       25 1
      36       12        8 1
      37       44       41 1
      38        9        7 1
      39       13        8 1
      40        5        2 1
      41       26       25 1
      42       37       35 1
      43       19       14 1
      44       51       48 1
      45        7        2 1
      46       42       41 1
      47       10        7 1
      48       47       42 1
      49       45       42 1
      50       20       19 1
@<TRIPOS>SUBSTRUCTURE
       1 oh16            1 RESIDUE    0 **** ROOT      0
