@<TRIPOS>MOLECULE
ffa16
50 49 1 0 1
SMALL
NO_CHARGES
@<TRIPOS>CRYSIN
    8.1875     8.3778    25.8862    90.0000    90.0000    90.0000  1  1
@<TRIPOS>ATOM
       1              1.0723     1.3822     0.7485               1 ffa16   
       2              0.8408     1.0836    -0.1332               1 ffa16   
       3             -0.3069    -0.3953     1.1116               1 ffa16   
       4              0.0000     0.0000     0.0000               1 ffa16   
       5             -0.4703    -0.6063    -1.3193               1 ffa16   
       6             -1.5796    -0.5695    -1.3385               1 ffa16   
       7             -0.1590    -1.6717    -1.3383               1 ffa16   
       8              0.0884     0.1135    -2.5590               1 ffa16   
       9              1.2026     0.0814    -2.5549               1 ffa16   
      10 10          -0.2195     1.1848    -2.5551 10            1 ffa16   
      11 11          -0.4079    -0.5263    -3.8480 11            1 ffa16   
      12 12          -1.5205    -0.4922    -3.8830 12            1 ffa16   
      13 13          -0.0984    -1.5956    -3.8829 13            1 ffa16   
      14 14           0.1558     0.2000    -5.0623 14            1 ffa16   
      15 15           1.2689     0.1680    -5.0347 15            1 ffa16   
      16 16          -0.1516     1.2702    -5.0349 16            1 ffa16   
      17 17          -0.3367    -0.4350    -6.3529 17            1 ffa16   
      18 18          -1.4495    -0.4011    -6.3843 18            1 ffa16   
      19 19          -0.0273    -1.5045    -6.3841 19            1 ffa16   
      20 20           0.2274     0.2918    -7.5630 20            1 ffa16   
      21 21           1.3405     0.2582    -7.5337 21            1 ffa16   
      22 22          -0.0816     1.3616    -7.5339 22            1 ffa16   
      23 23          -0.2671    -0.3458    -8.8509 23            1 ffa16   
      24 24          -1.3802    -0.3122    -8.8802 24            1 ffa16   
      25 25           0.0419    -1.4156    -8.8800 25            1 ffa16   
      26 26           0.2956     0.3792   -10.0615 26            1 ffa16   
      27 27           1.4092     0.3463   -10.0316 27            1 ffa16   
      28 28          -0.0130     1.4497   -10.0318 28            1 ffa16   
      29 29          -0.1985    -0.2578   -11.3503 29            1 ffa16   
      30 30          -1.3115    -0.2241   -11.3781 30            1 ffa16   
      31 31           0.1106    -1.3275   -11.3779 31            1 ffa16   
      32 32           0.3645     0.4675   -12.5630 32            1 ffa16   
      33 33           1.4774     0.4338   -12.5301 33            1 ffa16   
      34 34           0.0553     1.5372   -12.5303 34            1 ffa16   
      35 35          -0.1277    -0.1669   -13.8543 35            1 ffa16   
      36 36          -1.2414    -0.1342   -13.8806 36            1 ffa16   
      37 37           0.1807    -1.2376   -13.8804 37            1 ffa16   
      38 38           0.4346     0.5575   -15.0704 38            1 ffa16   
      39 39           1.5476     0.5239   -15.0362 39            1 ffa16   
      40 40           0.1251     1.6268   -15.0356 40            1 ffa16   
      41 41          -0.0582    -0.0779   -16.3652 41            1 ffa16   
      42 42          -1.1712    -0.0458   -16.3864 42            1 ffa16   
      43 43           0.2493    -1.1480   -16.3863 43            1 ffa16   
      44 44           0.4942     0.6355   -17.5966 44            1 ffa16   
      45 45           1.6079     0.6044   -17.5605 45            1 ffa16   
      46 46           0.1883     1.7061   -17.5593 46            1 ffa16   
      47 47          -0.0000     0.0000   -18.8933 47            1 ffa16   
      48 48          -1.1098     0.0394   -18.9377 48            1 ffa16   
      49 49           0.3134    -1.0658   -18.9381 49            1 ffa16   
      50 50           0.4138     0.5332   -19.7746 50            1 ffa16   
@<TRIPOS>BOND
       1       41       43 1
       2       35       37 1
       3       47       50 1
       4       20       22 1
       5       38       39 1
       6       23       24 1
       7       20       23 1
       8        5        6 1
       9       23       26 1
      10       20       17 1
      11       44       46 1
      12        5        8 1
      13       47       48 1
      14        3        4 1
      15        8        9 1
      16       44       47 1
      17       16       14 1
      18       44       45 1
      19       26       29 1
      20       19       17 1
      21       23       25 1
      22       26       27 1
      23       38       40 1
      24        8       11 1
      25       38       41 1
      26       18       17 1
      27       41       42 1
      28       32       34 1
      29       32       33 1
      30       26       28 1
      31        2        4 1
      32        5        7 1
      33       29       30 1
      34       17       14 1
      35       35       38 1
      36       41       44 1
      37       32       35 1
      38       35       36 1
      39       14       11 1
      40        4        5 1
      41       29       32 1
      42        1        2 1
      43       15       14 1
      44       13       11 1
      45       29       31 1
      46       47       49 1
      47       12       11 1
      48       21       20 1
      49        8       10 1
@<TRIPOS>SUBSTRUCTURE
       1 ffa16           1 RESIDUE    0 **** ROOT      0
