@<TRIPOS>MOLECULE
ffa16
50 49 1 0 1
SMALL
NO_CHARGES
@<TRIPOS>CRYSIN
    8.1875     8.3778    25.8862    90.0000    90.0000    90.0000  1  1
@<TRIPOS>ATOM
       1 HOL          1.0723     1.3822     0.7485 HOL           1 ffa16   
       2 OHL          0.8408     1.0836    -0.1332 OHL           1 ffa16   
       3 OBL         -0.3069    -0.3953     1.1116 OBL           1 ffa16   
       4 CL           0.0000     0.0000     0.0000 CL            1 ffa16   
       5 CTL2        -0.4703    -0.6063    -1.3193 CTL2          1 ffa16   
       6 HAL2        -1.5796    -0.5695    -1.3385 HAL2          1 ffa16   
       7 HAL2        -0.1590    -1.6717    -1.3383 HAL2          1 ffa16   
       8 CTL2         0.0884     0.1135    -2.5590 CTL2          1 ffa16   
       9 HAL2         1.2026     0.0814    -2.5549 HAL2          1 ffa16   
      10 HAL2        -0.2195     1.1848    -2.5551 HAL2          1 ffa16   
      11 CTL2        -0.4079    -0.5263    -3.8480 CTL2          1 ffa16   
      12 HAL2        -1.5205    -0.4922    -3.8830 HAL2          1 ffa16   
      13 HAL2        -0.0984    -1.5956    -3.8829 HAL2          1 ffa16   
      14 CTL2         0.1558     0.2000    -5.0623 CTL2          1 ffa16   
      15 HAL2         1.2689     0.1680    -5.0347 HAL2          1 ffa16   
      16 HAL2        -0.1516     1.2702    -5.0349 HAL2          1 ffa16   
      17 CTL2        -0.3367    -0.4350    -6.3529 CTL2          1 ffa16   
      18 HAL2        -1.4495    -0.4011    -6.3843 HAL2          1 ffa16   
      19 HAL2        -0.0273    -1.5045    -6.3841 HAL2          1 ffa16   
      20 CTL2         0.2274     0.2918    -7.5630 CTL2          1 ffa16   
      21 HAL2         1.3405     0.2582    -7.5337 HAL2          1 ffa16   
      22 HAL2        -0.0816     1.3616    -7.5339 HAL2          1 ffa16   
      23 CTL2        -0.2671    -0.3458    -8.8509 CTL2          1 ffa16   
      24 HAL2        -1.3802    -0.3122    -8.8802 HAL2          1 ffa16   
      25 HAL2         0.0419    -1.4156    -8.8800 HAL2          1 ffa16   
      26 CTL2         0.2956     0.3792   -10.0615 CTL2          1 ffa16   
      27 HAL2         1.4092     0.3463   -10.0316 HAL2          1 ffa16   
      28 HAL2        -0.0130     1.4497   -10.0318 HAL2          1 ffa16   
      29 CTL2        -0.1985    -0.2578   -11.3503 CTL2          1 ffa16   
      30 HAL2        -1.3115    -0.2241   -11.3781 HAL2          1 ffa16   
      31 HAL2         0.1106    -1.3275   -11.3779 HAL2          1 ffa16   
      32 CTL2         0.3645     0.4675   -12.5630 CTL2          1 ffa16   
      33 HAL2         1.4774     0.4338   -12.5301 HAL2          1 ffa16   
      34 HAL2         0.0553     1.5372   -12.5303 HAL2          1 ffa16   
      35 CTL2        -0.1277    -0.1669   -13.8543 CTL2          1 ffa16   
      36 HAL2        -1.2414    -0.1342   -13.8806 HAL2          1 ffa16   
      37 HAL2         0.1807    -1.2376   -13.8804 HAL2          1 ffa16   
      38 CTL2         0.4346     0.5575   -15.0704 CTL2          1 ffa16   
      39 HAL2         1.5476     0.5239   -15.0362 HAL2          1 ffa16   
      40 HAL2         0.1251     1.6268   -15.0356 HAL2          1 ffa16   
      41 CTL2        -0.0582    -0.0779   -16.3652 CTL2          1 ffa16   
      42 HAL2        -1.1712    -0.0458   -16.3864 HAL2          1 ffa16   
      43 HAL2         0.2493    -1.1480   -16.3863 HAL2          1 ffa16   
      44 CTL2         0.4942     0.6355   -17.5966 CTL2          1 ffa16   
      45 HAL2         1.6079     0.6044   -17.5605 HAL2          1 ffa16   
      46 HAL2         0.1883     1.7061   -17.5593 HAL2          1 ffa16   
      47 CTL3         0.0000    -0.0000   -18.8933 CTL3          1 ffa16   
      48 HAL3        -1.1098     0.0394   -18.9377 HAL3          1 ffa16   
      49 HAL3         0.3134    -1.0658   -18.9381 HAL3          1 ffa16   
      50 HAL3         0.4138     0.5332   -19.7746 HAL3          1 ffa16   
@<TRIPOS>BOND
       1       23       20 1
       2       17       14 1
       3       41       38 1
       4        5        4 1
       5       50       47 1
       6       28       26 1
       7       10        8 1
       8        2        4 1
       9       39       38 1
      10       27       26 1
      11       44       41 1
      12       46       44 1
      13       35       32 1
      14       14       11 1
      15       36       35 1
      16       11        8 1
      17       45       44 1
      18       32       29 1
      19       21       20 1
      20       26       23 1
      21       24       23 1
      22       22       20 1
      23        7        5 1
      24        2        1 1
      25       48       47 1
      26       16       14 1
      27       20       17 1
      28       31       29 1
      29       42       41 1
      30        6        5 1
      31       19       17 1
      32       18       17 1
      33       33       32 1
      34        4        3 1
      35       25       23 1
      36       38       35 1
      37       29       26 1
      38       40       38 1
      39       15       14 1
      40       37       35 1
      41       13       11 1
      42       47       44 1
      43       49       47 1
      44       12       11 1
      45       43       41 1
      46        9        8 1
      47       34       32 1
      48       30       29 1
      49        8        5 1
@<TRIPOS>SUBSTRUCTURE
       1 ffa16           1 RESIDUE    0 **** ROOT      0
