@<TRIPOS>MOLECULE
ffa16
50 49 1 0 1
SMALL
NO_CHARGES
@<TRIPOS>CRYSIN
    8.2865     8.4865    25.8750    90.0000    90.0000    90.0000  1  1
@<TRIPOS>ATOM
       1 HOL          0.9769     1.2370    19.6565 HOL           1 ffa16   
       2 OHL          0.7476     0.9466    18.7715 OHL           1 ffa16   
       3 OBL         -0.4199    -0.5307    19.9997 OBL           1 ffa16   
       4 CL          -0.1034    -0.1304    18.8926 CL            1 ffa16   
       5 CTL2        -0.5718    -0.7234    17.5665 CTL2          1 ffa16   
       6 HAL2        -1.6806    -0.6767    17.5416 HAL2          1 ffa16   
       7 HAL2        -0.2699    -1.7914    17.5419 HAL2          1 ffa16   
       8 CTL2        -0.0000     0.0000    16.3350 CTL2          1 ffa16   
       9 HAL2         1.1138    -0.0420    16.3449 HAL2          1 ffa16   
      10 HAL2        -0.2985     1.0739    16.3446 HAL2          1 ffa16   
      11 CTL2        -0.4949    -0.6266    15.0389 CTL2          1 ffa16   
      12 HAL2        -1.6070    -0.5824    14.9980 HAL2          1 ffa16   
      13 HAL2        -0.1946    -1.6983    14.9983 HAL2          1 ffa16   
      14 CTL2         0.0819     0.1031    13.8327 CTL2          1 ffa16   
      15 HAL2         1.1944     0.0611    13.8662 HAL2          1 ffa16   
      16 HAL2        -0.2164     1.1758    13.8659 HAL2          1 ffa16   
      17 CTL2        -0.4091    -0.5185    12.5351 CTL2          1 ffa16   
      18 HAL2        -1.5214    -0.4746    12.4979 HAL2          1 ffa16   
      19 HAL2        -0.1091    -1.5905    12.4981 HAL2          1 ffa16   
      20 CTL2         0.1679     0.2115    11.3332 CTL2          1 ffa16   
      21 HAL2         1.2805     0.1679    11.3682 HAL2          1 ffa16   
      22 HAL2        -0.1319     1.2838    11.3680 HAL2          1 ffa16   
      23 CTL2        -0.3251    -0.4127    10.0382 CTL2          1 ffa16   
      24 HAL2        -1.4377    -0.3691    10.0031 HAL2          1 ffa16   
      25 HAL2        -0.0253    -1.4850    10.0033 HAL2          1 ffa16   
      26 CTL2         0.2506     0.3156     8.8358 CTL2          1 ffa16   
      27 HAL2         1.3636     0.2726     8.8714 HAL2          1 ffa16   
      28 HAL2        -0.0487     1.3886     8.8712 HAL2          1 ffa16   
      29 CTL2        -0.2421    -0.3081     7.5399 CTL2          1 ffa16   
      30 HAL2        -1.3545    -0.2644     7.5063 HAL2          1 ffa16   
      31 HAL2         0.0578    -1.3803     7.5065 HAL2          1 ffa16   
      32 CTL2         0.3339     0.4206     6.3353 CTL2          1 ffa16   
      33 HAL2         1.4463     0.3768     6.3740 HAL2          1 ffa16   
      34 HAL2         0.0339     1.4927     6.3737 HAL2          1 ffa16   
      35 CTL2        -0.1567    -0.2006     5.0370 CTL2          1 ffa16   
      36 HAL2        -1.2700    -0.1578     5.0049 HAL2          1 ffa16   
      37 HAL2         0.1424    -1.2737     5.0052 HAL2          1 ffa16   
      38 CTL2         0.4185     0.5273     3.8290 CTL2          1 ffa16   
      39 HAL2         1.5310     0.4835     3.8690 HAL2          1 ffa16   
      40 HAL2         0.1183     1.5990     3.8696 HAL2          1 ffa16   
      41 CTL2        -0.0727    -0.0948     2.5272 CTL2          1 ffa16   
      42 HAL2        -1.1853    -0.0528     2.5001 HAL2          1 ffa16   
      43 HAL2         0.2255    -1.1674     2.5004 HAL2          1 ffa16   
      44 CTL2         0.4927     0.6222     1.3038 CTL2          1 ffa16   
      45 HAL2         1.6058     0.5809     1.3457 HAL2          1 ffa16   
      46 HAL2         0.1959     1.6951     1.3469 HAL2          1 ffa16   
      47 CTL3         0.0000     0.0000     0.0000 CTL3          1 ffa16   
      48 HAL3        -1.1091     0.0495    -0.0501 HAL3          1 ffa16   
      49 HAL3         0.3043    -1.0682    -0.0505 HAL3          1 ffa16   
      50 HAL3         0.4233     0.5356    -0.8753 HAL3          1 ffa16   
@<TRIPOS>BOND
       1       31       29 1
       2       48       47 1
       3       36       35 1
       4       42       41 1
       5       15       14 1
       6       20       17 1
       7       45       44 1
       8        5        4 1
       9       39       38 1
      10        2        1 1
      11       46       44 1
      12       38       35 1
      13       33       32 1
      14       25       23 1
      15       24       23 1
      16       10        8 1
      17       22       20 1
      18        8        5 1
      19       50       47 1
      20       47       44 1
      21       43       41 1
      22       30       29 1
      23       21       20 1
      24        6        5 1
      25        7        5 1
      26       12       11 1
      27       23       20 1
      28       35       32 1
      29       13       11 1
      30       17       14 1
      31       37       35 1
      32       41       38 1
      33       27       26 1
      34       11        8 1
      35       29       26 1
      36       14       11 1
      37        4        3 1
      38       16       14 1
      39       28       26 1
      40       26       23 1
      41        2        4 1
      42       19       17 1
      43       49       47 1
      44        9        8 1
      45       18       17 1
      46       34       32 1
      47       32       29 1
      48       44       41 1
      49       40       38 1
@<TRIPOS>SUBSTRUCTURE
       1 ffa16           1 RESIDUE    0 **** ROOT      0
