@<TRIPOS>MOLECULE
ffa16
50 49 1 0 1
SMALL
USER_CHARGES
@<TRIPOS>CRYSIN
    8.1875     8.3778    25.8862    90.0000    90.0000    90.0000  1  1
@<TRIPOS>ATOM
       1 HOL          1.0723     1.3822     0.7485 HOL           1 ffa16      0.440000
       2 OHL          0.8408     1.0836    -0.1332 OHL           1 ffa16     -0.610000
       3 OBL         -0.3069    -0.3953     1.1116 OBL           1 ffa16     -0.550000
       4 CL           0.0000     0.0000     0.0000 CL            1 ffa16      0.750000
       5 CTL2        -0.4703    -0.6063    -1.3193 CTL2          1 ffa16     -0.210000
       6 HAL2        -1.5796    -0.5695    -1.3385 HAL2          1 ffa16      0.090000
       7 HAL2        -0.1590    -1.6717    -1.3383 HAL2          1 ffa16      0.090000
       8 CTL2         0.0884     0.1135    -2.5590 CTL2          1 ffa16     -0.180000
       9 HAL2         1.2026     0.0814    -2.5549 HAL2          1 ffa16      0.090000
      10 HAL2        -0.2195     1.1848    -2.5551 HAL2          1 ffa16      0.090000
      11 CTL2        -0.4079    -0.5263    -3.8480 CTL2          1 ffa16     -0.180000
      12 HAL2        -1.5205    -0.4922    -3.8830 HAL2          1 ffa16      0.090000
      13 HAL2        -0.0984    -1.5956    -3.8829 HAL2          1 ffa16      0.090000
      14 CTL2         0.1558     0.2000    -5.0623 CTL2          1 ffa16     -0.180000
      15 HAL2         1.2689     0.1680    -5.0347 HAL2          1 ffa16      0.090000
      16 HAL2        -0.1516     1.2702    -5.0349 HAL2          1 ffa16      0.090000
      17 CTL2        -0.3367    -0.4350    -6.3529 CTL2          1 ffa16     -0.180000
      18 HAL2        -1.4495    -0.4011    -6.3843 HAL2          1 ffa16      0.090000
      19 HAL2        -0.0273    -1.5045    -6.3841 HAL2          1 ffa16      0.090000
      20 CTL2         0.2274     0.2918    -7.5630 CTL2          1 ffa16     -0.180000
      21 HAL2         1.3405     0.2582    -7.5337 HAL2          1 ffa16      0.090000
      22 HAL2        -0.0816     1.3616    -7.5339 HAL2          1 ffa16      0.090000
      23 CTL2        -0.2671    -0.3458    -8.8509 CTL2          1 ffa16     -0.180000
      24 HAL2        -1.3802    -0.3122    -8.8802 HAL2          1 ffa16      0.090000
      25 HAL2         0.0419    -1.4156    -8.8800 HAL2          1 ffa16      0.090000
      26 CTL2         0.2956     0.3792   -10.0615 CTL2          1 ffa16     -0.180000
      27 HAL2         1.4092     0.3463   -10.0316 HAL2          1 ffa16      0.090000
      28 HAL2        -0.0130     1.4497   -10.0318 HAL2          1 ffa16      0.090000
      29 CTL2        -0.1985    -0.2578   -11.3503 CTL2          1 ffa16     -0.180000
      30 HAL2        -1.3115    -0.2241   -11.3781 HAL2          1 ffa16      0.090000
      31 HAL2         0.1106    -1.3275   -11.3779 HAL2          1 ffa16      0.090000
      32 CTL2         0.3645     0.4675   -12.5630 CTL2          1 ffa16     -0.180000
      33 HAL2         1.4774     0.4338   -12.5301 HAL2          1 ffa16      0.090000
      34 HAL2         0.0553     1.5372   -12.5303 HAL2          1 ffa16      0.090000
      35 CTL2        -0.1277    -0.1669   -13.8543 CTL2          1 ffa16     -0.180000
      36 HAL2        -1.2414    -0.1342   -13.8806 HAL2          1 ffa16      0.090000
      37 HAL2         0.1807    -1.2376   -13.8804 HAL2          1 ffa16      0.090000
      38 CTL2         0.4346     0.5575   -15.0704 CTL2          1 ffa16     -0.180000
      39 HAL2         1.5476     0.5239   -15.0362 HAL2          1 ffa16      0.090000
      40 HAL2         0.1251     1.6268   -15.0356 HAL2          1 ffa16      0.090000
      41 CTL2        -0.0582    -0.0779   -16.3652 CTL2          1 ffa16     -0.180000
      42 HAL2        -1.1712    -0.0458   -16.3864 HAL2          1 ffa16      0.090000
      43 HAL2         0.2493    -1.1480   -16.3863 HAL2          1 ffa16      0.090000
      44 CTL2         0.4942     0.6355   -17.5966 CTL2          1 ffa16     -0.180000
      45 HAL2         1.6079     0.6044   -17.5605 HAL2          1 ffa16      0.090000
      46 HAL2         0.1883     1.7061   -17.5593 HAL2          1 ffa16      0.090000
      47 CTL3        -0.0000     0.0000   -18.8933 CTL3          1 ffa16     -0.270000
      48 HAL3        -1.1098     0.0394   -18.9377 HAL3          1 ffa16      0.090000
      49 HAL3         0.3134    -1.0658   -18.9381 HAL3          1 ffa16      0.090000
      50 HAL3         0.4138     0.5332   -19.7746 HAL3          1 ffa16      0.090000
@<TRIPOS>BOND
       1        6        5 1
       2       21       20 1
       3       11        8 1
       4       25       23 1
       5       30       29 1
       6       22       20 1
       7       43       41 1
       8       26       23 1
       9       40       38 1
      10       17       14 1
      11       27       26 1
      12       41       38 1
      13       18       17 1
      14       10        8 1
      15       38       35 1
      16        2        1 1
      17        4        3 1
      18       23       20 1
      19       48       47 1
      20       34       32 1
      21       46       44 1
      22       15       14 1
      23       24       23 1
      24       12       11 1
      25       39       38 1
      26       35       32 1
      27        8        5 1
      28        2        4 1
      29        5        4 1
      30       16       14 1
      31       45       44 1
      32       42       41 1
      33       31       29 1
      34       47       44 1
      35       36       35 1
      36       49       47 1
      37        7        5 1
      38       28       26 1
      39       50       47 1
      40       29       26 1
      41       19       17 1
      42       14       11 1
      43       13       11 1
      44       33       32 1
      45       20       17 1
      46       32       29 1
      47       44       41 1
      48       37       35 1
      49        9        8 1
@<TRIPOS>SUBSTRUCTURE
       1 ffa16           1 RESIDUE    0 **** ROOT      0
