@<TRIPOS>MOLECULE
ffa16
50 49 1 0 1
SMALL
NO_CHARGES
@<TRIPOS>CRYSIN
    8.1875     8.3778    25.8862    90.0000    90.0000    90.0000  1  1
@<TRIPOS>ATOM
       1 H1           1.0723     1.3822     0.7485 HOL           1 ffa16   
       2 O1           0.8408     1.0836    -0.1332 OHL           1 ffa16   
       3 O2          -0.3069    -0.3953     1.1116 OBL           1 ffa16   
       4 C1           0.0000     0.0000     0.0000 CL            1 ffa16   
       5 C2          -0.4703    -0.6063    -1.3193 CTL2          1 ffa16   
       6 H2R         -1.5796    -0.5695    -1.3385 HAL2          1 ffa16   
       7 H2S         -0.1590    -1.6717    -1.3383 HAL2          1 ffa16   
       8 C3           0.0884     0.1135    -2.5590 CTL2          1 ffa16   
       9 H3R          1.2026     0.0814    -2.5549 HAL2          1 ffa16   
      10 H3S         -0.2195     1.1848    -2.5551 HAL2          1 ffa16   
      11 C4          -0.4079    -0.5263    -3.8480 CTL2          1 ffa16   
      12 H4R         -1.5205    -0.4922    -3.8830 HAL2          1 ffa16   
      13 H4S         -0.0984    -1.5956    -3.8829 HAL2          1 ffa16   
      14 C5           0.1558     0.2000    -5.0623 CTL2          1 ffa16   
      15 H5R          1.2689     0.1680    -5.0347 HAL2          1 ffa16   
      16 H5S         -0.1516     1.2702    -5.0349 HAL2          1 ffa16   
      17 C6          -0.3367    -0.4350    -6.3529 CTL2          1 ffa16   
      18 H6R         -1.4495    -0.4011    -6.3843 HAL2          1 ffa16   
      19 H6S         -0.0273    -1.5045    -6.3841 HAL2          1 ffa16   
      20 C7           0.2274     0.2918    -7.5630 CTL2          1 ffa16   
      21 H7R          1.3405     0.2582    -7.5337 HAL2          1 ffa16   
      22 H7S         -0.0816     1.3616    -7.5339 HAL2          1 ffa16   
      23 C8          -0.2671    -0.3458    -8.8509 CTL2          1 ffa16   
      24 H8R         -1.3802    -0.3122    -8.8802 HAL2          1 ffa16   
      25 H8S          0.0419    -1.4156    -8.8800 HAL2          1 ffa16   
      26 C9           0.2956     0.3792   -10.0615 CTL2          1 ffa16   
      27 H9R          1.4092     0.3463   -10.0316 HAL2          1 ffa16   
      28 H9S         -0.0130     1.4497   -10.0318 HAL2          1 ffa16   
      29 C10         -0.1985    -0.2578   -11.3503 CTL2          1 ffa16   
      30 H10R        -1.3115    -0.2241   -11.3781 HAL2          1 ffa16   
      31 H10S         0.1106    -1.3275   -11.3779 HAL2          1 ffa16   
      32 C11          0.3645     0.4675   -12.5630 CTL2          1 ffa16   
      33 H11R         1.4774     0.4338   -12.5301 HAL2          1 ffa16   
      34 H11S         0.0553     1.5372   -12.5303 HAL2          1 ffa16   
      35 C12         -0.1277    -0.1669   -13.8543 CTL2          1 ffa16   
      36 H12R        -1.2414    -0.1342   -13.8806 HAL2          1 ffa16   
      37 H12S         0.1807    -1.2376   -13.8804 HAL2          1 ffa16   
      38 C13          0.4346     0.5575   -15.0704 CTL2          1 ffa16   
      39 H13R         1.5476     0.5239   -15.0362 HAL2          1 ffa16   
      40 H13S         0.1251     1.6268   -15.0356 HAL2          1 ffa16   
      41 C14         -0.0582    -0.0779   -16.3652 CTL2          1 ffa16   
      42 H14R        -1.1712    -0.0458   -16.3864 HAL2          1 ffa16   
      43 H14S         0.2493    -1.1480   -16.3863 HAL2          1 ffa16   
      44 C15          0.4942     0.6355   -17.5966 CTL2          1 ffa16   
      45 H15R         1.6079     0.6044   -17.5605 HAL2          1 ffa16   
      46 H15S         0.1883     1.7061   -17.5593 HAL2          1 ffa16   
      47 C16         -0.0000     0.0000   -18.8933 CTL3          1 ffa16   
      48 H16R        -1.1098     0.0394   -18.9377 HAL3          1 ffa16   
      49 H16S         0.3134    -1.0658   -18.9381 HAL3          1 ffa16   
      50 H16T         0.4138     0.5332   -19.7746 HAL3          1 ffa16   
@<TRIPOS>BOND
       1       47       48 1
       2       44       45 1
       3       23       24 1
       4       32       34 1
       5       26       28 1
       6       12       11 1
       7        5        6 1
       8       32       35 1
       9       35       36 1
      10       21       20 1
      11       13       11 1
      12       19       17 1
      13        4        5 1
      14       29       32 1
      15       18       17 1
      16       38       39 1
      17       16       14 1
      18        2        4 1
      19       47       49 1
      20       29       30 1
      21       20       17 1
      22       14       11 1
      23        5        8 1
      24       41       43 1
      25       23       26 1
      26       29       31 1
      27       41       42 1
      28       44       46 1
      29        5        7 1
      30       44       47 1
      31       23       25 1
      32       35       38 1
      33        3        4 1
      34        8       11 1
      35        8       10 1
      36       41       44 1
      37       47       50 1
      38       35       37 1
      39        8        9 1
      40       26       29 1
      41       38       41 1
      42       22       20 1
      43       26       27 1
      44       32       33 1
      45       17       14 1
      46       15       14 1
      47       20       23 1
      48       38       40 1
      49        2        1 1
@<TRIPOS>SUBSTRUCTURE
       1 ffa16           1 RESIDUE    0 **** ROOT      0
