@<TRIPOS>MOLECULE
ucer2
129 128 1 0 1
SMALL
NO_CHARGES
@<TRIPOS>CRYSIN
    9.4307    10.0636    61.9654    90.0000    90.0000    90.0000  1  1
@<TRIPOS>ATOM
       1 NH1          1.0780     0.1666    32.5505 NH1           1 ucer2   
       2 HN1          0.6618    -0.7525    32.5633 HN1           1 ucer2   
       3 CLN          1.3839     0.7387    31.3127 CLN           1 ucer2   
       4 OBL          1.9135     1.8398    31.2057 OBL           1 ucer2   
       5 CTL2         0.8814     0.0120    30.0036 CTL2          1 ucer2   
       6 HAL2        -0.2145     0.1602    29.9342 HAL2          1 ucer2   
       7 HAL2         1.0577    -1.0764    30.1163 HAL2          1 ucer2   
       8 CTL2         1.4981     0.4739    28.5740 CTL2          1 ucer2   
       9 HAL2         1.5328     1.5873    28.5643 HAL2          1 ucer2   
      10 HAL2         2.5542     0.1242    28.5353 HAL2          1 ucer2   
      11 CTL2         0.7649     0.0326    27.2076 CTL2          1 ucer2   
      12 HAL2         0.5637    -1.0598    27.2633 HAL2          1 ucer2   
      13 HAL2        -0.2222     0.5459    27.1975 HAL2          1 ucer2   
      14 CTL2         1.4666     0.3066    25.7816 CTL2          1 ucer2   
      15 HAL2         1.8446     1.3527    25.7853 HAL2          1 ucer2   
      16 HAL2         2.3564    -0.3586    25.7261 HAL2          1 ucer2   
      17 CTL2         0.6254     0.1218    24.4192 CTL2          1 ucer2   
      18 HAL2         0.0956    -0.8543    24.4750 HAL2          1 ucer2   
      19 HAL2        -0.1543     0.9151    24.4117 HAL2          1 ucer2   
      20 CTL2         1.3754     0.1616    22.9938 CTL2          1 ucer2   
      21 HAL2         2.0389     1.0543    22.9810 HAL2          1 ucer2   
      22 HAL2         2.0344    -0.7336    22.9467 HAL2          1 ucer2   
      23 CTL2         0.5146     0.2052    21.6333 CTL2          1 ucer2   
      24 HAL2        -0.2581    -0.5929    21.6914 HAL2          1 ucer2   
      25 HAL2        -0.0235     1.1790    21.6180 HAL2          1 ucer2   
      26 CTL2         1.2499     0.0366    20.2127 CTL2          1 ucer2   
      27 HAL2         2.1133     0.7372    20.1872 HAL2          1 ucer2   
      28 HAL2         1.6657    -0.9947    20.1771 HAL2          1 ucer2   
      29 CTL2         0.4220     0.2713    18.8575 CTL2          1 ucer2   
      30 HAL2        -0.5109    -0.3312    18.9134 HAL2          1 ucer2   
      31 HAL2         0.1190     1.3413    18.8336 HAL2          1 ucer2   
      32 CTL2         1.1073    -0.0662    17.4493 CTL2          1 ucer2   
      33 HAL2         2.0959     0.4420    17.4127 HAL2          1 ucer2   
      34 HAL2         1.3014    -1.1613    17.4247 HAL2          1 ucer2   
      35 CTL2         0.3406     0.3154    16.0980 CTL2          1 ucer2   
      36 HAL2        -0.6889    -0.1028    16.1510 HAL2          1 ucer2   
      37 HAL2         0.2424     1.4234    16.0673 HAL2          1 ucer2   
      38 CTL2         0.9617    -0.1512    14.7027 CTL2          1 ucer2   
      39 HAL2         2.0211     0.1864    14.6648 HAL2          1 ucer2   
      40 HAL2         0.9715    -1.2638    14.6943 HAL2          1 ucer2   
      41 CTL2         0.2638     0.3373    13.3560 CTL2          1 ucer2   
      42 HAL2        -0.8154     0.0740    13.4111 HAL2          1 ucer2   
      43 HAL2         0.3304     1.4474    13.3262 HAL2          1 ucer2   
      44 CTL2         0.8180    -0.2213    11.9736 CTL2          1 ucer2   
      45 HAL2         1.9117    -0.0239    11.9304 HAL2          1 ucer2   
      46 HAL2         0.6835    -1.3256    11.9741 HAL2          1 ucer2   
      47 CTL2         0.1876     0.3375    10.6273 CTL2          1 ucer2   
      48 HAL2        -0.9152     0.1971    10.6671 HAL2          1 ucer2   
      49 HAL2         0.3793     1.4326    10.5820 HAL2          1 ucer2   
      50 CTL2         0.6915    -0.2937     9.2650 CTL2          1 ucer2   
      51 HAL2         1.7996    -0.2017     9.2241 HAL2          1 ucer2   
      52 HAL2         0.4504    -1.3801     9.2794 HAL2          1 ucer2   
      53 CTL2         0.1198     0.3065     7.9203 CTL2          1 ucer2   
      54 HAL2        -0.9913     0.2570     7.9460 HAL2          1 ucer2   
      55 HAL2         0.4018     1.3813     7.8629 HAL2          1 ucer2   
      56 CTL2         0.5877    -0.3794     6.5853 CTL2          1 ucer2   
      57 HAL2         0.2706    -1.4461     6.5997 HAL2          1 ucer2   
      58 HAL2         1.6994    -0.3642     6.5385 HAL2          1 ucer2   
      59 CTL2         0.0589     0.2489     5.2513 CTL2          1 ucer2   
      60 HAL2         0.4040     1.3051     5.1854 HAL2          1 ucer2   
      61 HAL2        -1.0539     0.2578     5.2663 HAL2          1 ucer2   
      62 CTL2         0.5074    -0.4814     3.9482 CTL2          1 ucer2   
      63 HAL2         0.1402    -1.5312     3.9913 HAL2          1 ucer2   
      64 HAL2         1.6196    -0.5122     3.9257 HAL2          1 ucer2   
      65 CTL2         0.0173     0.1491     2.6112 CTL2          1 ucer2   
      66 HAL2         0.4036     1.1896     2.5355 HAL2          1 ucer2   
      67 HAL2        -1.0944     0.1898     2.6095 HAL2          1 ucer2   
      68 CTL2         0.4591    -0.6102     1.3394 CTL2          1 ucer2   
      69 HAL2         0.0637    -1.6489     1.3989 HAL2          1 ucer2   
      70 HAL2         1.5709    -0.6624     1.3319 HAL2          1 ucer2   
      71 CTL3         0.0000     0.0000     0.0000 CTL3          1 ucer2   
      72 HAL3        -1.1097     0.0487    -0.0548 HAL3          1 ucer2   
      73 HAL3         0.3570    -0.6127    -0.8588 HAL3          1 ucer2   
      74 HAL3         0.4018     1.0293    -0.1266 HAL3          1 ucer2   
      75 CTL1         1.1233     0.8595    33.9205 CTL1          1 ucer2   
      76 HAL1         1.9143     1.6434    33.8625 HAL1          1 ucer2   
      77 CTL2        -0.2557     1.5852    34.1250 CTL2          1 ucer2   
      78 HAL2        -0.7039     1.8482    33.1395 HAL2          1 ucer2   
      79 HAL2        -0.9771     0.9183    34.6489 HAL2          1 ucer2   
      80 OHL         -0.0887     2.7872    34.8766 OHL           1 ucer2   
      81 HOL         -0.9474     3.2196    34.9252 HOL           1 ucer2   
      82 CTL1         1.5716    -0.1572    35.0993 CTL1          1 ucer2   
      83 HAL1         2.6810    -0.1192    35.1876 HAL1          1 ucer2   
      84 OHL          1.1748    -1.4995    34.8257 OHL           1 ucer2   
      85 HOL          1.8318    -1.8440    34.2138 HOL           1 ucer2   
      86 CEL1         1.0099     0.2179    36.5176 CEL1          1 ucer2   
      87 HEL1        -0.0860     0.2782    36.5817 HEL1          1 ucer2   
      88 CEL1         1.7086     0.3897    37.6933 CEL1          1 ucer2   
      89 HEL1         2.8024     0.2597    37.7119 HEL1          1 ucer2   
      90 CTL2         1.1251     0.6648    39.0972 CTL2          1 ucer2   
      91 HAL2         0.8566     1.7425    39.1624 HAL2          1 ucer2   
      92 HAL2         0.1710     0.1023    39.2065 HAL2          1 ucer2   
      93 CTL2         1.9352     0.3439    40.4295 CTL2          1 ucer2   
      94 HAL2         2.1853    -0.7399    40.4326 HAL2          1 ucer2   
      95 HAL2         2.8951     0.9043    40.3899 HAL2          1 ucer2   
      96 CTL2         1.2280     0.6822    41.8142 CTL2          1 ucer2   
      97 HAL2         0.9186     1.7504    41.7903 HAL2          1 ucer2   
      98 HAL2         0.2970     0.0756    41.8731 HAL2          1 ucer2   
      99 CTL2         2.0468     0.4566    43.1581 CTL2          1 ucer2   
     100 HAL2         2.3982    -0.5988    43.1806 HAL2          1 ucer2   
     101 HAL2         2.9491     1.1066    43.1259 HAL2          1 ucer2   
     102 CTL2         1.3094     0.7349    44.5348 CTL2          1 ucer2   
     103 HAL2         0.9094     1.7730    44.5120 HAL2          1 ucer2   
     104 HAL2         0.4377     0.0463    44.5922 HAL2          1 ucer2   
     105 CTL2         2.1445     0.5672    45.8712 CTL2          1 ucer2   
     106 HAL2         2.5737    -0.4588    45.8944 HAL2          1 ucer2   
     107 HAL2         2.9979     1.2810    45.8612 HAL2          1 ucer2   
     108 CTL2         1.3888     0.7911    47.2339 CTL2          1 ucer2   
     109 HAL2         0.9407     1.8090    47.2316 HAL2          1 ucer2   
     110 HAL2         0.5555     0.0581    47.3121 HAL2          1 ucer2   
     111 CTL2         2.2566     0.6699    48.5356 CTL2          1 ucer2   
     112 HAL2         2.7377    -0.3335    48.5555 HAL2          1 ucer2   
     113 HAL2         3.0695     1.4293    48.4952 HAL2          1 ucer2   
     114 CTL2         1.5025     0.8572    49.8946 CTL2          1 ucer2   
     115 HAL2         1.0039     1.8530    49.8989 HAL2          1 ucer2   
     116 HAL2         0.7064     0.0824    49.9699 HAL2          1 ucer2   
     117 CTL2         2.3969     0.7610    51.1680 CTL2          1 ucer2   
     118 HAL2         2.9126    -0.2246    51.1587 HAL2          1 ucer2   
     119 HAL2         3.1845     1.5438    51.0996 HAL2          1 ucer2   
     120 CTL2         1.6550     0.9179    52.5306 CTL2          1 ucer2   
     121 HAL2         1.1341     1.8998    52.5667 HAL2          1 ucer2   
     122 HAL2         0.8831     0.1240    52.6348 HAL2          1 ucer2   
     123 CTL2         2.5713     0.8385    53.7739 CTL2          1 ucer2   
     124 HAL2         3.0944    -0.1447    53.7449 HAL2          1 ucer2   
     125 HAL2         3.3210     1.6583    53.6896 HAL2          1 ucer2   
     126 CTL3         1.8387     0.9747    55.2104 CTL3          1 ucer2   
     127 HAL3         2.5240     0.9219    56.1066 HAL3          1 ucer2   
     128 HAL3         1.2926     1.9512    55.3475 HAL3          1 ucer2   
     129 HAL3         1.0780     0.1666    55.4073 HAL3          1 ucer2   
@<TRIPOS>BOND
       1       41       43 1
       2       47       49 1
       3       44       47 1
       4       78       77 1
       5       96       97 1
       6       82       84 1
       7        5        6 1
       8       84       85 1
       9        8       10 1
      10      120      121 1
      11       23       25 1
      12       11       13 1
      13       20       22 1
      14       75        1 1
      15      102      104 1
      16       32       33 1
      17       87       86 1
      18       35       36 1
      19       38       39 1
      20       75       82 1
      21       82       83 1
      22       26       29 1
      23       17       20 1
      24       50       51 1
      25       32       35 1
      26       53       50 1
      27       44       46 1
      28       63       62 1
      29       23       26 1
      30       20       23 1
      31      108      109 1
      32       62       64 1
      33      120      123 1
      34       99      101 1
      35       44       45 1
      36        3        5 1
      37      105      108 1
      38        5        7 1
      39        5        8 1
      40        2        1 1
      41      102      103 1
      42       11       14 1
      43       59       60 1
      44       77       80 1
      45       14       17 1
      46       65       66 1
      47       55       53 1
      48      123      124 1
      49      114      117 1
      50      111      112 1
      51       35       37 1
      52      114      115 1
      53       99      102 1
      54       35       38 1
      55       26       28 1
      56        8        9 1
      57       56       58 1
      58       88       90 1
      59       47       50 1
      60       32       34 1
      61       38       41 1
      62      126      127 1
      63       68       69 1
      64       54       53 1
      65       90       91 1
      66       77       79 1
      67       96       99 1
      68      102      105 1
      69       29       30 1
      70      126      129 1
      71       68       71 1
      72       71       72 1
      73       90       93 1
      74       93       94 1
      75      108      111 1
      76       82       86 1
      77       80       81 1
      78       20       21 1
      79       41       44 1
      80       17       18 1
      81       59       61 1
      82       14       16 1
      83       65       62 1
      84      117      118 1
      85       71       74 1
      86       93       96 1
      87       88       86 1
      88       75       77 1
      89      111      113 1
      90       14       15 1
      91      117      119 1
      92       26       27 1
      93      117      120 1
      94      120      122 1
      95        3        1 1
      96       71       73 1
      97       93       95 1
      98      108      110 1
      99       75       76 1
     100       65       67 1
     101      123      125 1
     102       41       42 1
     103      114      116 1
     104       56       53 1
     105        8       11 1
     106       17       19 1
     107       50       52 1
     108       96       98 1
     109       99      100 1
     110       23       24 1
     111        3        4 1
     112      105      106 1
     113       29       31 1
     114       68       70 1
     115      126      128 1
     116       90       92 1
     117       88       89 1
     118       56       57 1
     119       38       40 1
     120      105      107 1
     121       29       32 1
     122       47       48 1
     123       11       12 1
     124       65       68 1
     125      123      126 1
     126      111      114 1
     127       59       62 1
     128       56       59 1
@<TRIPOS>SUBSTRUCTURE
       1 ucer2           1 RESIDUE    0 **** ROOT      0
