@<TRIPOS>MOLECULE
ffa12
38 37 1 0 1
SMALL
NO_CHARGES
@<TRIPOS>CRYSIN
    7.7393     8.3079    20.8706    90.0000    90.0000    90.0000  1  1
@<TRIPOS>ATOM
       1 H1           0.6565     1.6080     0.7741 HOL           1 ffa12   
       2 O1           0.5193     1.2714    -0.1079 OHL           1 ffa12   
       3 O2          -0.1961    -0.4803     1.1059 OBL           1 ffa12   
       4 C1           0.0000     0.0000     0.0000 CL            1 ffa12   
       5 C2          -0.2824    -0.6922    -1.3290 CTL2          1 ffa12   
       6 H2R         -1.3608    -0.9531    -1.3591 HAL2          1 ffa12   
       7 H2S          0.3036    -1.6337    -1.3594 HAL2          1 ffa12   
       8 C3           0.0703     0.1720    -2.5542 CTL2          1 ffa12   
       9 H3R          1.1525     0.4397    -2.5387 HAL2          1 ffa12   
      10 H3S         -0.5139     1.1206    -2.5392 HAL2          1 ffa12   
      11 C4          -0.2277    -0.5591    -3.8562 CTL2          1 ffa12   
      12 H4R         -1.3083    -0.8244    -3.9005 HAL2          1 ffa12   
      13 H4S          0.3582    -1.5053    -3.9000 HAL2          1 ffa12   
      14 C5           0.1270     0.3097    -5.0548 CTL2          1 ffa12   
      15 H5R          1.2077     0.5766    -5.0161 HAL2          1 ffa12   
      16 H5S         -0.4569     1.2570    -5.0167 HAL2          1 ffa12   
      17 C6          -0.1684    -0.4151    -6.3587 CTL2          1 ffa12   
      18 H6R         -1.2498    -0.6804    -6.3998 HAL2          1 ffa12   
      19 H6S          0.4166    -1.3615    -6.4002 HAL2          1 ffa12   
      20 C7           0.1865     0.4539    -7.5563 CTL2          1 ffa12   
      21 H7R          1.2673     0.7206    -7.5144 HAL2          1 ffa12   
      22 H7S         -0.3982     1.4013    -7.5150 HAL2          1 ffa12   
      23 C8          -0.1088    -0.2701    -8.8614 CTL2          1 ffa12   
      24 H8R         -1.1905    -0.5376    -8.8988 HAL2          1 ffa12   
      25 H8S          0.4752    -1.2173    -8.8985 HAL2          1 ffa12   
      26 C9           0.2454     0.5972   -10.0616 CTL2          1 ffa12   
      27 H9R          1.3260     0.8625   -10.0173 HAL2          1 ffa12   
      28 H9S         -0.3403     1.5437   -10.0168 HAL2          1 ffa12   
      29 C10         -0.0505    -0.1285   -11.3694 CTL2          1 ffa12   
      30 H10R        -1.1319    -0.3964   -11.4005 HAL2          1 ffa12   
      31 H10S         0.5328    -1.0761   -11.4011 HAL2          1 ffa12   
      32 C11          0.2970     0.7256   -12.5852 CTL2          1 ffa12   
      33 H11R         1.3785     0.9935   -12.5385 HAL2          1 ffa12   
      34 H11S        -0.2859     1.6742   -12.5382 HAL2          1 ffa12   
      35 C12          0.0000     0.0000   -13.8939 CTL3          1 ffa12   
      36 H12S        -1.0798    -0.2597   -13.9479 HAL3          1 ffa12   
      37 H12R         0.5882    -0.9422   -13.9483 HAL3          1 ffa12   
      38 H12T         0.2596     0.6363   -14.7647 HAL3          1 ffa12   
@<TRIPOS>BOND
       1       26       27 1
       2       14       17 1
       3       10        8 1
       4       22       20 1
       5       14       16 1
       6        6        5 1
       7       11       14 1
       8       24       23 1
       9       29       31 1
      10        2        4 1
      11       18       17 1
      12        4        5 1
      13       11       12 1
      14       25       23 1
      15        9        8 1
      16       35       36 1
      17        3        4 1
      18       32       35 1
      19       29       32 1
      20        8       11 1
      21       26       23 1
      22       32       33 1
      23       35       38 1
      24       14       15 1
      25       23       20 1
      26        7        5 1
      27        2        1 1
      28       29       30 1
      29       26       28 1
      30       20       17 1
      31       35       37 1
      32       32       34 1
      33       26       29 1
      34       11       13 1
      35       21       20 1
      36       19       17 1
      37        8        5 1
@<TRIPOS>SUBSTRUCTURE
       1 ffa12           1 RESIDUE    0 **** ROOT      0
