@<TRIPOS>MOLECULE
chol
74 77 1 0 1
SMALL
NO_CHARGES
@<TRIPOS>CRYSIN
   10.3580     9.5027    23.5708    90.0000    90.0000    90.0000  1  1
@<TRIPOS>ATOM
       1 C1           0.0000     0.0000     0.0000 CTL1          1 chol    
       2 H2           0.6775    -0.8277    -0.3127 HAL1          1 chol    
       3 O3          -0.0185     0.0867     1.4286 OHL           1 chol    
       4 H4           0.8515     0.2408     1.7762 HOL           1 chol    
       5 C5          -1.3790    -0.2464    -0.5528 CTL2          1 chol    
       6 H6          -2.0972     0.5334    -0.2088 HAL2          1 chol    
       7 H7          -1.7301    -1.2245    -0.1473 HAL2          1 chol    
       8 C8          -1.3680    -0.3596    -2.0716 CTL2          1 chol    
       9 H9          -2.3971    -0.5394    -2.4589 HAL2          1 chol    
      10 H10         -0.7576    -1.2554    -2.3283 HAL2          1 chol    
      11 C11         -0.7090     0.8707    -2.7859 CTL1          1 chol    
      12 C12         -1.6667     2.1042    -2.6896 CTL3          1 chol    
      13 H13         -1.8909     2.3871    -1.6339 HAL3          1 chol    
      14 H14         -2.6041     1.9295    -3.2681 HAL3          1 chol    
      15 H15         -1.1430     2.9697    -3.1576 HAL3          1 chol    
      16 C16          0.5617     1.2586    -2.0755 CEL1          1 chol    
      17 C17          0.5248     1.3101    -0.5401 CTL2          1 chol    
      18 H18          1.5130     1.5801    -0.1026 HAL2          1 chol    
      19 H19         -0.2009     2.1076    -0.2472 HAL2          1 chol    
      20 C20          1.6854     1.5781    -2.6965 CEL1          1 chol    
      21 H21          2.5558     1.8696    -2.0873 HEL1          1 chol    
      22 C22          1.8357     1.5702    -4.1998 CTL2          1 chol    
      23 H23          2.4227     2.4535    -4.5404 HAL2          1 chol    
      24 H24          2.4211     0.6607    -4.4650 HAL2          1 chol    
      25 C25          0.5232     1.4868    -4.9441 CTL1          1 chol    
      26 H26          0.0369     2.4918    -4.9489 HAL1          1 chol    
      27 C27         -0.3963     0.4808    -4.2522 CTL1          1 chol    
      28 H28          0.1815    -0.4728    -4.1960 HAL1          1 chol    
      29 C29         -1.6449     0.1607    -5.0990 CTL2          1 chol    
      30 H30         -2.3562     1.0181    -5.0761 HAL2          1 chol    
      31 H31         -2.1575    -0.7033    -4.6172 HAL2          1 chol    
      32 C32         -1.3494    -0.2434    -6.5401 CTL2          1 chol    
      33 H33         -2.2811    -0.4592    -7.1112 HAL2          1 chol    
      34 H34         -0.7483    -1.1810    -6.5077 HAL2          1 chol    
      35 C35         -0.4861     0.8444    -7.2318 CTL1          1 chol    
      36 C36         -1.3154     2.1885    -7.3776 CTL3          1 chol    
      37 H37         -1.7629     2.4542    -6.3913 HAL3          1 chol    
      38 H38         -2.0791     2.1273    -8.1861 HAL3          1 chol    
      39 H39         -0.5992     2.9987    -7.6513 HAL3          1 chol    
      40 C40          0.7799     1.0441    -6.3851 CTL1          1 chol    
      41 H41          1.2702     0.0469    -6.3181 HAL1          1 chol    
      42 C42          1.6978     1.9175    -7.2567 CTL2          1 chol    
      43 H43          1.5712     3.0128    -7.0987 HAL2          1 chol    
      44 H44          2.7539     1.6534    -7.0179 HAL2          1 chol    
      45 C45          1.3998     1.4437    -8.6958 CTL2          1 chol    
      46 H46          1.2622     2.2825    -9.4183 HAL2          1 chol    
      47 H47          2.2707     0.8376    -9.0420 HAL2          1 chol    
      48 C48          0.1357     0.4738    -8.6065 CTL1          1 chol    
      49 H49          0.5415    -0.5566    -8.4936 HAL1          1 chol    
      50 C50         -0.6900     0.4676    -9.8959 CTL1          1 chol    
      51 H51         -1.0689     1.5046   -10.0522 HAL1          1 chol    
      52 C52         -1.9160    -0.4527    -9.7820 CTL3          1 chol    
      53 H53         -2.5164    -0.4583   -10.7225 HAL3          1 chol    
      54 H54         -2.5438    -0.1882    -8.9006 HAL3          1 chol    
      55 H55         -1.5386    -1.4899    -9.6247 HAL3          1 chol    
      56 C56          0.2268     0.1322   -11.0872 CTL2          1 chol    
      57 H57          1.1906     0.6917   -11.0240 HAL2          1 chol    
      58 H58          0.4698    -0.9527   -11.0236 HAL2          1 chol    
      59 C59         -0.4535     0.3615   -12.4248 CTL2          1 chol    
      60 H60         -1.3767    -0.2498   -12.5442 HAL2          1 chol    
      61 H61         -0.7541     1.4367   -12.4722 HAL2          1 chol    
      62 C62          0.6521     0.0962   -13.6375 CTL2          1 chol    
      63 H63          1.2888    -0.7966   -13.4322 HAL2          1 chol    
      64 H64          1.3211     0.9866   -13.6857 HAL2          1 chol    
      65 C65         -0.0000     0.0000   -14.8564 CTL1          1 chol    
      66 H66         -0.9594    -0.5696   -14.8399 HAL1          1 chol    
      67 C67         -0.1216     1.5256   -15.3315 CTL3          1 chol    
      68 H68         -0.6468     1.4479   -16.3113 HAL3          1 chol    
      69 H69          0.8452     2.0794   -15.3642 HAL3          1 chol    
      70 H70         -0.7978     2.0553   -14.6190 HAL3          1 chol    
      71 C71          1.0301    -0.5208   -15.8120 CTL3          1 chol    
      72 H72          0.5076    -0.5967   -16.7946 HAL3          1 chol    
      73 H73          1.5132    -1.4686   -15.4819 HAL3          1 chol    
      74 H74          1.8281     0.2544   -15.9097 HAL3          1 chol    
@<TRIPOS>BOND
       1       42       44 1
       2       67       69 1
       3       59       61 1
       4       16       17 1
       5       25       40 1
       6       50       51 1
       7       11        8 1
       8        8        5 1
       9       36       38 1
      10       71       74 1
      11       50       52 1
      12       40       42 1
      13       16       20 1
      14       36       37 1
      15       35       40 1
      16        3        1 1
      17       45       47 1
      18       65       71 1
      19       56       57 1
      20       27       28 1
      21       27       29 1
      22        1       17 1
      23       20       21 1
      24       50       56 1
      25        9        8 1
      26       12       15 1
      27       25       26 1
      28       12       13 1
      29       29       32 1
      30       32       33 1
      31       22       25 1
      32       42       43 1
      33       10        8 1
      34       67       68 1
      35        3        4 1
      36       52       53 1
      37       35       48 1
      38       71       73 1
      39       20       22 1
      40       32       35 1
      41       56       59 1
      42       11       16 1
      43       35       36 1
      44       56       58 1
      45       62       65 1
      46       52       55 1
      47       62       64 1
      48       59       62 1
      49       42       45 1
      50       62       63 1
      51        6        5 1
      52       29       30 1
      53       40       41 1
      54       45       48 1
      55       54       52 1
      56       45       46 1
      57       25       27 1
      58       12       14 1
      59       65       67 1
      60       59       60 1
      61       36       39 1
      62       17       19 1
      63       22       24 1
      64       48       49 1
      65       65       66 1
      66       67       70 1
      67       48       50 1
      68       12       11 1
      69        1        2 1
      70       32       34 1
      71       29       31 1
      72       17       18 1
      73       11       27 1
      74        7        5 1
      75       71       72 1
      76       22       23 1
      77        1        5 1
@<TRIPOS>SUBSTRUCTURE
       1 chol            1 RESIDUE    0 **** ROOT      0
