@<TRIPOS>MOLECULE
chol
74 77 1 0 1
SMALL
USER_CHARGES
@<TRIPOS>CRYSIN
   10.3580     9.5026    23.5708    90.0000    90.0000    90.0000  1  1
@<TRIPOS>ATOM
       1 CTL1         0.0000     0.0000     0.0000 CTL1          1 chol      -0.008000
       2 HAL1         0.6775    -0.8277    -0.3127 HAL1          1 chol       0.180000
       3 OHL         -0.0185     0.0867     1.4286 OHL           1 chol      -0.566000
       4 HOL          0.8515     0.2408     1.7762 HOL           1 chol       0.394000
       5 CTL2        -1.3790    -0.2464    -0.5528 CTL2          1 chol      -0.162000
       6 HAL2        -2.0972     0.5334    -0.2088 HAL2          1 chol       0.081000
       7 HAL2        -1.7301    -1.2245    -0.1473 HAL2          1 chol       0.081000
       8 CTL2        -1.3680    -0.3596    -2.0716 CTL2          1 chol      -0.162000
       9 HAL2        -2.3971    -0.5394    -2.4589 HAL2          1 chol       0.081000
      10 HAL2        -0.7576    -1.2554    -2.3283 HAL2          1 chol       0.081000
      11 CTL1        -0.7090     0.8707    -2.7859 CTL1          1 chol       0.087000
      12 CTL3        -1.6667     2.1042    -2.6896 CTL3          1 chol      -0.144000
      13 HAL3        -1.8909     2.3871    -1.6339 HAL3          1 chol       0.048000
      14 HAL3        -2.6041     1.9295    -3.2681 HAL3          1 chol       0.048000
      15 HAL3        -1.1430     2.9697    -3.1576 HAL3          1 chol       0.048000
      16 CEL1         0.5617     1.2586    -2.0755 CEL1          1 chol      -0.092000
      17 CTL2         0.5248     1.3101    -0.5401 CTL2          1 chol      -0.200000
      18 HAL2         1.5130     1.5801    -0.1026 HAL2          1 chol       0.100000
      19 HAL2        -0.2009     2.1076    -0.2472 HAL2          1 chol       0.100000
      20 CEL1         1.6854     1.5781    -2.6965 CEL1          1 chol      -0.083000
      21 HEL1         2.5558     1.8696    -2.0873 HEL1          1 chol       0.088000
      22 CTL2         1.8357     1.5702    -4.1998 CTL2          1 chol      -0.187000
      23 HAL2         2.4227     2.4535    -4.5404 HAL2          1 chol       0.103000
      24 HAL2         2.4211     0.6607    -4.4650 HAL2          1 chol       0.091000
      25 CTL1         0.5232     1.4868    -4.9441 CTL1          1 chol      -0.190000
      26 HAL1         0.0369     2.4918    -4.9489 HAL1          1 chol       0.183000
      27 CTL1        -0.3963     0.4808    -4.2522 CTL1          1 chol      -0.159000
      28 HAL1         0.1815    -0.4728    -4.1960 HAL1          1 chol       0.104000
      29 CTL2        -1.6449     0.1607    -5.0990 CTL2          1 chol       0.036000
      30 HAL2        -2.3562     1.0181    -5.0761 HAL2          1 chol       0.012000
      31 HAL2        -2.1575    -0.7033    -4.6172 HAL2          1 chol       0.007000
      32 CTL2        -1.3494    -0.2434    -6.5401 CTL2          1 chol       0.036000
      33 HAL2        -2.2811    -0.4592    -7.1112 HAL2          1 chol      -0.018000
      34 HAL2        -0.7483    -1.1810    -6.5077 HAL2          1 chol      -0.018000
      35 CTL1        -0.4861     0.8444    -7.2318 CTL1          1 chol       0.083000
      36 CTL3        -1.3154     2.1885    -7.3776 CTL3          1 chol      -0.018000
      37 HAL3        -1.7629     2.4542    -6.3913 HAL3          1 chol       0.006000
      38 HAL3        -2.0791     2.1273    -8.1861 HAL3          1 chol       0.006000
      39 HAL3        -0.5992     2.9987    -7.6513 HAL3          1 chol       0.006000
      40 CTL1         0.7799     1.0441    -6.3851 CTL1          1 chol      -0.204000
      41 HAL1         1.2702     0.0469    -6.3181 HAL1          1 chol       0.121000
      42 CTL2         1.6978     1.9175    -7.2567 CTL2          1 chol      -0.134000
      43 HAL2         1.5712     3.0128    -7.0987 HAL2          1 chol       0.067000
      44 HAL2         2.7539     1.6534    -7.0179 HAL2          1 chol       0.067000
      45 CTL2         1.3998     1.4437    -8.6958 CTL2          1 chol      -0.108000
      46 HAL2         1.2622     2.2825    -9.4183 HAL2          1 chol       0.054000
      47 HAL2         2.2707     0.8376    -9.0420 HAL2          1 chol       0.054000
      48 CTL1         0.1357     0.4738    -8.6065 CTL1          1 chol      -0.075000
      49 HAL1         0.5415    -0.5566    -8.4936 HAL1          1 chol       0.063000
      50 CTL1        -0.6900     0.4676    -9.8959 CTL1          1 chol      -0.017000
      51 HAL1        -1.0689     1.5046   -10.0522 HAL1          1 chol       0.029000
      52 CTL3        -1.9160    -0.4527    -9.7820 CTL3          1 chol      -0.144000
      53 HAL3        -2.5164    -0.4583   -10.7225 HAL3          1 chol       0.048000
      54 HAL3        -2.5438    -0.1882    -8.9006 HAL3          1 chol       0.048000
      55 HAL3        -1.5386    -1.4899    -9.6247 HAL3          1 chol       0.048000
      56 CTL2         0.2268     0.1322   -11.0872 CTL2          1 chol       0.042000
      57 HAL2         1.1906     0.6917   -11.0240 HAL2          1 chol      -0.021000
      58 HAL2         0.4698    -0.9527   -11.0236 HAL2          1 chol      -0.021000
      59 CTL2        -0.4535     0.3615   -12.4248 CTL2          1 chol       0.010000
      60 HAL2        -1.3767    -0.2498   -12.5442 HAL2          1 chol      -0.005000
      61 HAL2        -0.7541     1.4367   -12.4722 HAL2          1 chol      -0.005000
      62 CTL2         0.6521     0.0962   -13.6375 CTL2          1 chol      -0.014000
      63 HAL2         1.2888    -0.7966   -13.4322 HAL2          1 chol       0.007000
      64 HAL2         1.3211     0.9866   -13.6857 HAL2          1 chol       0.007000
      65 CTL1        -0.0000     0.0000   -14.8564 CTL1          1 chol      -0.007000
      66 HAL1        -0.9594    -0.5696   -14.8399 HAL1          1 chol       0.007000
      67 CTL3        -0.1216     1.5256   -15.3315 CTL3          1 chol       0.033000
      68 HAL3        -0.6468     1.4479   -16.3113 HAL3          1 chol      -0.011000
      69 HAL3         0.8452     2.0794   -15.3642 HAL3          1 chol      -0.011000
      70 HAL3        -0.7978     2.0553   -14.6190 HAL3          1 chol      -0.011000
      71 CTL3         1.0301    -0.5208   -15.8120 CTL3          1 chol       0.054000
      72 HAL3         0.5076    -0.5967   -16.7946 HAL3          1 chol      -0.018000
      73 HAL3         1.5132    -1.4686   -15.4819 HAL3          1 chol      -0.018000
      74 HAL3         1.8281     0.2544   -15.9097 HAL3          1 chol      -0.018000
@<TRIPOS>BOND
       1       56       57 1
       2       32       34 1
       3       62       65 1
       4       50       51 1
       5        5        7 1
       6        1       17 1
       7       40       41 1
       8       11       16 1
       9       23       22 1
      10        5        6 1
      11        3        4 1
      12       42       44 1
      13        8       10 1
      14       67       70 1
      15        8       11 1
      16       25       22 1
      17        5        1 1
      18       27       28 1
      19       36       37 1
      20       50       52 1
      21       40       35 1
      22       12       15 1
      23       29       30 1
      24       59       61 1
      25        8        9 1
      26       48       35 1
      27       59       60 1
      28       35       36 1
      29       65       67 1
      30       62       63 1
      31       12       13 1
      32       40       25 1
      33       16       20 1
      34       32       35 1
      35       65       66 1
      36       52       53 1
      37        2        1 1
      38        3        1 1
      39       48       49 1
      40       67       68 1
      41       17       19 1
      42       56       58 1
      43       71       74 1
      44        5        8 1
      45       59       62 1
      46       32       33 1
      47       11       12 1
      48       67       69 1
      49       71       73 1
      50       27       29 1
      51       48       50 1
      52       71       72 1
      53       50       56 1
      54       29       32 1
      55       22       20 1
      56       62       64 1
      57       12       14 1
      58       45       48 1
      59       25       26 1
      60       45       46 1
      61       40       42 1
      62       65       71 1
      63       38       36 1
      64       29       31 1
      65       42       45 1
      66       24       22 1
      67       52       55 1
      68       25       27 1
      69       21       20 1
      70       42       43 1
      71       45       47 1
      72       11       27 1
      73       56       59 1
      74       18       17 1
      75       52       54 1
      76       39       36 1
      77       16       17 1
@<TRIPOS>SUBSTRUCTURE
       1 chol            1 RESIDUE    0 **** ROOT      0
