@<TRIPOS>MOLECULE
cer1
197 196 1 0 1
SMALL
NO_CHARGES
@<TRIPOS>CRYSIN
   11.4671    12.2594    74.9211    90.0000    90.0000    90.0000  1  1
@<TRIPOS>ATOM
       1 CTL3        -3.5235    -2.7951   -16.5591 CTL3          1 cer1    
       2 CTL2        -2.7667    -2.8045   -15.2244 CTL2          1 cer1    
       3 CTL2        -3.6671    -2.7272   -13.9785 CTL2          1 cer1    
       4 CTL2        -2.8796    -2.6093   -12.6640 CTL2          1 cer1    
       5 CTL2        -3.7466    -2.7811   -11.4111 CTL2          1 cer1    
       6 CTL2        -2.9658    -2.5931   -10.0969 CTL2          1 cer1    
       7 CTL2        -3.7343    -3.1297    -8.8749 CTL2          1 cer1    
       8 CTL2        -3.0127    -2.8971    -7.5443 CTL2          1 cer1    
       9 CTL2        -3.6688    -3.6505    -6.3801 CTL2          1 cer1    
      10 CTL2        -3.0178    -3.3521    -5.0257 CTL2          1 cer1    
      11 CTL2        -3.6315    -4.1384    -3.8588 CTL2          1 cer1    
      12 CTL2        -3.0031    -3.7202    -2.5246 CTL2          1 cer1    
      13 CTL2        -3.5737    -4.4251    -1.2601 CTL2          1 cer1    
      14 CEL1        -3.0626    -3.8265     0.0334 CEL1          1 cer1    
      15 CEL1        -1.9103    -3.1325     0.1548 CEL1          1 cer1    
      16 CTL1        -1.3242    -2.5650     1.4330 CTL1          1 cer1    
      17 OHL          0.0818    -2.8061     1.4071 OHL           1 cer1    
      18 HOL          0.1869    -3.7604     1.4169 HOL           1 cer1    
      19 CTL1        -1.6423    -1.0719     1.6237 CTL1          1 cer1    
      20 CTL2        -1.1086    -0.3932     2.9276 CTL2          1 cer1    
      21 OHL         -1.7634    -0.9195     4.0894 OHL           1 cer1    
      22 HOL         -1.2851    -0.6027     4.8634 HOL           1 cer1    
      23 NH1         -1.2682    -0.2671     0.4184 NH1           1 cer1    
      24 HN1         -1.7309     0.6175     0.5401 HN1           1 cer1    
      25 CLN          0.0000     0.0000     0.0000 CLN           1 cer1    
      26 OBL          0.4131     1.1076     0.2670 OBL           1 cer1    
      27 CTL2         0.4586    -0.6603    -1.3234 CTL2          1 cer1    
      28 CTL2        -0.2909    -0.2403    -2.6489 CTL2          1 cer1    
      29 CTL2         0.5118    -0.5006    -3.9748 CTL2          1 cer1    
      30 CTL2        -0.2362    -0.2556    -5.3354 CTL2          1 cer1    
      31 CTL2         0.6602    -0.2124    -6.6252 CTL2          1 cer1    
      32 CTL2        -0.0837    -0.2198    -8.0475 CTL2          1 cer1    
      33 CTL2         0.7264     0.0093    -9.4101 CTL2          1 cer1    
      34 CTL2        -0.0333    -0.2520   -10.7717 CTL2          1 cer1    
      35 CTL2         0.7290     0.1077   -12.1141 CTL2          1 cer1    
      36 CTL2         0.0000    -0.2379   -13.4816 CTL2          1 cer1    
      37 CTL2         0.6948     0.1860   -14.8464 CTL2          1 cer1    
      38 CTL2        -0.0187    -0.2415   -16.1986 CTL2          1 cer1    
      39 CTL2         0.6251     0.2074   -17.5841 CTL2          1 cer1    
      40 CTL2        -0.0946    -0.2539   -18.9294 CTL2          1 cer1    
      41 CTL2         0.5208     0.2110   -20.3239 CTL2          1 cer1    
      42 CTL2        -0.1942    -0.2647   -21.6716 CTL2          1 cer1    
      43 CTL2         0.4006     0.2243   -23.0708 CTL2          1 cer1    
      44 CTL2        -0.2765    -0.2976   -24.4225 CTL2          1 cer1    
      45 CTL2         0.2821     0.2395   -25.8226 CTL2          1 cer1    
      46 CTL2        -0.3509    -0.3319   -27.1777 CTL2          1 cer1    
      47 CTL2         0.1522     0.2585   -28.5768 CTL2          1 cer1    
      48 CTL2        -0.4213    -0.3619   -29.9360 CTL2          1 cer1    
      49 CTL2         0.0285     0.2807   -31.3305 CTL2          1 cer1    
      50 CTL2        -0.4798    -0.3855   -32.6946 CTL2          1 cer1    
      51 CTL2        -0.0806     0.3057   -34.0800 CTL2          1 cer1    
      52 CTL2        -0.5361    -0.3739   -35.4528 CTL2          1 cer1    
      53 CTL2        -0.1577     0.3604   -36.8187 CTL2          1 cer1    
      54 CTL2        -0.5774    -0.3007   -38.2163 CTL2          1 cer1    
      55 CTL2        -0.1743     0.4747   -39.5436 CTL2          1 cer1    
      56 OS          -0.6092    -0.1572   -40.8066 OS            1 cer1    
      57 CL          -0.1666     0.4387   -42.0428 CL            1 cer1    
      58 OBL          0.5561     1.4038   -42.1119 OBL           1 cer1    
      59 CTL2        -0.7670    -0.2726   -43.3359 CTL2          1 cer1    
      60 CTL2        -0.2238     0.2366   -44.7589 CTL2          1 cer1    
      61 CTL2        -0.9614    -0.2627   -46.0667 CTL2          1 cer1    
      62 CTL2        -0.2975     0.1003   -47.4632 CTL2          1 cer1    
      63 CTL2        -1.1772    -0.1240   -48.7549 CTL2          1 cer1    
      64 CTL2        -0.4693    -0.0775   -50.1695 CTL2          1 cer1    
      65 CTL2        -1.4231     0.0853   -51.4130 CTL2          1 cer1    
      66 CEL1        -1.1034    -0.5842   -52.7471 CEL1          1 cer1    
      67 CEL1        -1.2388    -0.0552   -54.0002 CEL1          1 cer1    
      68 CTL2        -1.1811    -0.8658   -55.2885 CTL2          1 cer1    
      69 CEL1        -0.5406    -0.3496   -56.5805 CEL1          1 cer1    
      70 CEL1        -1.0222    -0.6146   -57.8147 CEL1          1 cer1    
      71 CTL2        -0.3209    -0.3817   -59.1525 CTL2          1 cer1    
      72 CTL2        -1.1086     0.3353   -60.2870 CTL2          1 cer1    
      73 CTL2        -0.7161    -0.1007   -61.7210 CTL2          1 cer1    
      74 CTL2        -1.3405     0.7164   -62.8773 CTL2          1 cer1    
      75 CTL3        -1.0853     0.1427   -64.2903 CTL3          1 cer1    
      76 HAL3        -4.0850    -1.8445   -16.6975 HAL3          1 cer1    
      77 HAL3        -2.8091    -2.8988   -17.4054 HAL3          1 cer1    
      78 HAL3        -4.2512    -3.6353   -16.6122 HAL3          1 cer1    
      79 HAL2        -2.1412    -3.7252   -15.1528 HAL2          1 cer1    
      80 HAL2        -2.0637    -1.9456   -15.2085 HAL2          1 cer1    
      81 HAL2        -4.3394    -1.8439   -14.0622 HAL2          1 cer1    
      82 HAL2        -4.3046    -3.6407   -13.9452 HAL2          1 cer1    
      83 HAL2        -2.3807    -1.6135   -12.6249 HAL2          1 cer1    
      84 HAL2        -2.0917    -3.3933   -12.6435 HAL2          1 cer1    
      85 HAL2        -4.1720    -3.8074   -11.4454 HAL2          1 cer1    
      86 HAL2        -4.5990    -2.0665   -11.4373 HAL2          1 cer1    
      87 HAL2        -1.9938    -3.1359   -10.1580 HAL2          1 cer1    
      88 HAL2        -2.7441    -1.5105    -9.9585 HAL2          1 cer1    
      89 HAL2        -4.7368    -2.6549    -8.8086 HAL2          1 cer1    
      90 HAL2        -3.8998    -4.2196    -9.0150 HAL2          1 cer1    
      91 HAL2        -1.9558    -3.2455    -7.6321 HAL2          1 cer1    
      92 HAL2        -2.9895    -1.8024    -7.3332 HAL2          1 cer1    
      93 HAL2        -4.7467    -3.3813    -6.3232 HAL2          1 cer1    
      94 HAL2        -3.5968    -4.7453    -6.5779 HAL2          1 cer1    
      95 HAL2        -3.1329    -2.2671    -4.8150 HAL2          1 cer1    
      96 HAL2        -1.9260    -3.5593    -5.0870 HAL2          1 cer1    
      97 HAL2        -3.4709    -5.2276    -4.0132 HAL2          1 cer1    
      98 HAL2        -4.7320    -3.9543    -3.8329 HAL2          1 cer1    
      99 HAL2        -3.1454    -2.6178    -2.4277 HAL2          1 cer1    
     100 HAL2        -1.9070    -3.8971    -2.5794 HAL2          1 cer1    
     101 HAL2        -3.3808    -5.5184    -1.3078 HAL2          1 cer1    
     102 HAL2        -4.6774    -4.3116    -1.2868 HAL2          1 cer1    
     103 HEL1        -3.6801    -4.0129     0.9240 HEL1          1 cer1    
     104 HEL1        -1.1640    -3.2146    -0.6497 HEL1          1 cer1    
     105 HAL1        -1.7820    -3.1241     2.2880 HAL1          1 cer1    
     106 HAL1        -2.7490    -1.0057     1.6829 HAL1          1 cer1    
     107 HAL2        -1.3061     0.7128     2.8954 HAL2          1 cer1    
     108 HAL2        -0.0142    -0.5750     2.9943 HAL2          1 cer1    
     109 HAL2         0.4394    -1.7629    -1.2089 HAL2          1 cer1    
     110 HAL2         1.5120    -0.3292    -1.3835 HAL2          1 cer1    
     111 HAL2        -1.2703    -0.7702    -2.6953 HAL2          1 cer1    
     112 HAL2        -0.5226     0.8509    -2.5896 HAL2          1 cer1    
     113 HAL2         0.9047    -1.5438    -3.9721 HAL2          1 cer1    
     114 HAL2         1.3885     0.1875    -3.9464 HAL2          1 cer1    
     115 HAL2        -0.9900    -1.0661    -5.4405 HAL2          1 cer1    
     116 HAL2        -0.7791     0.7105    -5.2770 HAL2          1 cer1    
     117 HAL2         1.3510    -1.0853    -6.5910 HAL2          1 cer1    
     118 HAL2         1.2771     0.7083    -6.5794 HAL2          1 cer1    
     119 HAL2        -0.8911     0.5490    -8.0114 HAL2          1 cer1    
     120 HAL2        -0.5643    -1.2179    -8.1320 HAL2          1 cer1    
     121 HAL2         1.1018     1.0543    -9.3683 HAL2          1 cer1    
     122 HAL2         1.6109    -0.6645    -9.4027 HAL2          1 cer1    
     123 HAL2        -0.3401    -1.3248   -10.8105 HAL2          1 cer1    
     124 HAL2        -0.9725     0.3400   -10.7390 HAL2          1 cer1    
     125 HAL2         1.7204    -0.4047   -12.0981 HAL2          1 cer1    
     126 HAL2         0.9349     1.2018   -12.1160 HAL2          1 cer1    
     127 HAL2        -0.1390    -1.3389   -13.4800 HAL2          1 cer1    
     128 HAL2        -1.0109     0.2259   -13.4767 HAL2          1 cer1    
     129 HAL2         0.7996     1.2950   -14.8440 HAL2          1 cer1    
     130 HAL2         1.7164    -0.2495   -14.8461 HAL2          1 cer1    
     131 HAL2        -0.0717    -1.3501   -16.2157 HAL2          1 cer1    
     132 HAL2        -1.0635     0.1391   -16.1571 HAL2          1 cer1    
     133 HAL2         0.6778     1.3194   -17.5722 HAL2          1 cer1    
     134 HAL2         1.6750    -0.1664   -17.6157 HAL2          1 cer1    
     135 HAL2        -1.1412     0.1195   -18.8891 HAL2          1 cer1    
     136 HAL2        -0.1382    -1.3671   -18.9269 HAL2          1 cer1    
     137 HAL2         1.5768    -0.1341   -20.3499 HAL2          1 cer1    
     138 HAL2         0.5424     1.3218   -20.3322 HAL2          1 cer1    
     139 HAL2        -0.1823    -1.3760   -21.6669 HAL2          1 cer1    
     140 HAL2        -1.2574     0.0626   -21.6314 HAL2          1 cer1    
     141 HAL2         0.3699     1.3372   -23.0746 HAL2          1 cer1    
     142 HAL2         1.4737    -0.0690   -23.1042 HAL2          1 cer1    
     143 HAL2        -0.2018    -1.4069   -24.4316 HAL2          1 cer1    
     144 HAL2        -1.3569    -0.0469   -24.3698 HAL2          1 cer1    
     145 HAL2         1.3768     0.0369   -25.8542 HAL2          1 cer1    
     146 HAL2         0.1564     1.3458   -25.8276 HAL2          1 cer1    
     147 HAL2        -1.4512    -0.1762   -27.1352 HAL2          1 cer1    
     148 HAL2        -0.1758    -1.4303   -27.1916 HAL2          1 cer1    
     149 HAL2        -0.0811     1.3440   -28.5800 HAL2          1 cer1    
     150 HAL2         1.2574     0.1567   -28.6033 HAL2          1 cer1    
     151 HAL2        -1.5327    -0.3129   -29.8892 HAL2          1 cer1    
     152 HAL2        -0.1320    -1.4368   -29.9537 HAL2          1 cer1    
     153 HAL2         1.1400     0.2902   -31.3579 HAL2          1 cer1    
     154 HAL2        -0.2964     1.3448   -31.3270 HAL2          1 cer1    
     155 HAL2        -0.1064    -1.4331   -32.7221 HAL2          1 cer1    
     156 HAL2        -1.5901    -0.4324   -32.6565 HAL2          1 cer1    
     157 HAL2         1.0285     0.3920   -34.1047 HAL2          1 cer1    
     158 HAL2        -0.4943     1.3390   -34.0669 HAL2          1 cer1    
     159 HAL2        -0.0999    -1.3950   -35.4839 HAL2          1 cer1    
     160 HAL2        -1.6410    -0.4905   -35.4279 HAL2          1 cer1    
     161 HAL2        -0.6093     1.3764   -36.7789 HAL2          1 cer1    
     162 HAL2         0.9474     0.4907   -36.8272 HAL2          1 cer1    
     163 HAL2        -1.6812    -0.4337   -38.2298 HAL2          1 cer1    
     164 HAL2        -0.1271    -1.3160   -38.2799 HAL2          1 cer1    
     165 HAL2        -0.6109     1.4977   -39.4843 HAL2          1 cer1    
     166 HAL2         0.9351     0.5898   -39.5489 HAL2          1 cer1    
     167 HAL2        -0.5802    -1.3636   -43.2380 HAL2          1 cer1    
     168 HAL2        -1.8638    -0.1131   -43.2873 HAL2          1 cer1    
     169 HAL2        -0.2639     1.3509   -44.7751 HAL2          1 cer1    
     170 HAL2         0.8518    -0.0373   -44.8364 HAL2          1 cer1    
     171 HAL2        -1.9938     0.1566   -46.0561 HAL2          1 cer1    
     172 HAL2        -1.0621    -1.3687   -46.0322 HAL2          1 cer1    
     173 HAL2         0.6374    -0.4952   -47.5605 HAL2          1 cer1    
     174 HAL2        -0.0043     1.1711   -47.4564 HAL2          1 cer1    
     175 HAL2        -1.6728    -1.1180   -48.6821 HAL2          1 cer1    
     176 HAL2        -1.9812     0.6457   -48.7382 HAL2          1 cer1    
     177 HAL2         0.2592     0.7630   -50.1969 HAL2          1 cer1    
     178 HAL2         0.1165    -1.0183   -50.2727 HAL2          1 cer1    
     179 HAL2        -1.6161     1.1736   -51.5502 HAL2          1 cer1    
     180 HAL2        -2.3985    -0.3460   -51.0941 HAL2          1 cer1    
     181 HEL1        -0.9017    -1.6641   -52.6680 HEL1          1 cer1    
     182 HEL1        -1.5909     0.9829   -54.1101 HEL1          1 cer1    
     183 HAL2        -2.2324    -1.1610   -55.5118 HAL2          1 cer1    
     184 HAL2        -0.6843    -1.8342   -55.0627 HAL2          1 cer1    
     185 HEL1         0.4584     0.1030   -56.4892 HEL1          1 cer1    
     186 HEL1        -1.9532    -1.1986   -57.8861 HEL1          1 cer1    
     187 HAL2         0.6136     0.2139   -59.0557 HAL2          1 cer1    
     188 HAL2        -0.0229    -1.3847   -59.5345 HAL2          1 cer1    
     189 HAL2        -2.1738     0.0796   -60.1425 HAL2          1 cer1    
     190 HAL2        -0.9984     1.4479   -60.2008 HAL2          1 cer1    
     191 HAL2        -1.0484    -1.1473   -61.8633 HAL2          1 cer1    
     192 HAL2         0.4032    -0.0823   -61.7929 HAL2          1 cer1    
     193 HAL2        -2.4424     0.7968   -62.7919 HAL2          1 cer1    
     194 HAL2        -0.9142     1.7410   -62.7809 HAL2          1 cer1    
     195 HAL3        -1.5448    -0.8615   -64.4397 HAL3          1 cer1    
     196 HAL3         0.0000     0.0000   -64.4585 HAL3          1 cer1    
     197 HAL3        -1.4919     0.8431   -65.0577 HAL3          1 cer1    
@<TRIPOS>BOND
       1       75      197 1
       2       73      192 1
       3       59       60 1
       4       74      194 1
       5       23       25 1
       6      149       47 1
       7       33      121 1
       8      164       54 1
       9        7       89 1
      10       25       26 1
      11      153       49 1
      12      155       50 1
      13       64      177 1
      14       43       44 1
      15       38      131 1
      16       36      128 1
      17        3        4 1
      18        8       92 1
      19       13      101 1
      20       63       64 1
      21      137       41 1
      22       31      117 1
      23       30       31 1
      24       65       66 1
      25       48       49 1
      26        8       91 1
      27       68       69 1
      28      154       49 1
      29       28      111 1
      30       68      184 1
      31       16      105 1
      32       36       37 1
      33       74       75 1
      34       27      110 1
      35       19       20 1
      36       31       32 1
      37        8        9 1
      38       12      100 1
      39       37       38 1
      40       49       50 1
      41       32      119 1
      42       15      104 1
      43       37      129 1
      44       67      182 1
      45      171       61 1
      46       72       73 1
      47        6       88 1
      48       25       27 1
      49       71      188 1
      50        2        3 1
      51       20      108 1
      52       10       95 1
      53       21       22 1
      54       56       57 1
      55       66      181 1
      56        1       78 1
      57       39       40 1
      58       14       15 1
      59       17       18 1
      60       35       36 1
      61       20       21 1
      62       75      196 1
      63       31      118 1
      64       39      133 1
      65       38       39 1
      66      139       42 1
      67       32       33 1
      68       50       51 1
      69      165       55 1
      70        7       90 1
      71      150       47 1
      72      144       44 1
      73      141       43 1
      74        9       93 1
      75       34      123 1
      76       75      195 1
      77       44       45 1
      78      142       43 1
      79        5       85 1
      80      160       52 1
      81       34       35 1
      82       63      176 1
      83       11       98 1
      84       40       41 1
      85        6       87 1
      86       15       16 1
      87       54       55 1
      88       16       17 1
      89       13      102 1
      90      146       45 1
      91       69      185 1
      92        1       77 1
      93      159       52 1
      94       27       28 1
      95       45       46 1
      96      166       55 1
      97      163       54 1
      98      145       45 1
      99       54       53 1
     100      140       42 1
     101       29      113 1
     102       13       14 1
     103       62      174 1
     104       64      178 1
     105       10       11 1
     106       53       52 1
     107       65      180 1
     108        6        7 1
     109       73      191 1
     110      167       59 1
     111       57       58 1
     112      162       53 1
     113       19       23 1
     114       42       43 1
     115        5        6 1
     116      151       48 1
     117       36      127 1
     118        3       81 1
     119       11       12 1
     120       12       99 1
     121       19      106 1
     122        5       86 1
     123       72      190 1
     124       60       61 1
     125       35      125 1
     126       74       73 1
     127        4        5 1
     128       35      126 1
     129       71       70 1
     130       28      112 1
     131       68      183 1
     132      169       60 1
     133       71      187 1
     134      170       60 1
     135       32      120 1
     136        2       79 1
     137       40      136 1
     138       65      179 1
     139       38      132 1
     140        1        2 1
     141       11       97 1
     142       12       13 1
     143      158       51 1
     144       39      134 1
     145        3       82 1
     146        4       84 1
     147      143       44 1
     148      156       50 1
     149       20      107 1
     150       30      116 1
     151       28       29 1
     152       46       47 1
     153       61       62 1
     154       64       65 1
     155        7        8 1
     156       41       42 1
     157       23       24 1
     158       27      109 1
     159       70      186 1
     160       66       67 1
     161      138       41 1
     162       62      173 1
     163       70       69 1
     164       62       63 1
     165       57       59 1
     166       63      175 1
     167       37      130 1
     168       74      193 1
     169       55       56 1
     170       14      103 1
     171        4       83 1
     172      148       46 1
     173       29       30 1
     174       47       48 1
     175      147       46 1
     176      157       51 1
     177       72       71 1
     178       72      189 1
     179       30      115 1
     180        1       76 1
     181        2       80 1
     182       16       19 1
     183       33       34 1
     184      172       61 1
     185       40      135 1
     186       51       52 1
     187      152       48 1
     188       67       68 1
     189      161       53 1
     190       33      122 1
     191      168       59 1
     192        9       94 1
     193       10       96 1
     194       29      114 1
     195        9       10 1
     196       34      124 1
@<TRIPOS>SUBSTRUCTURE
       1 cer1            1 RESIDUE    0 **** ROOT      0
