@<TRIPOS>MOLECULE
cer1
197 196 1 0 1
SMALL
NO_CHARGES
@<TRIPOS>CRYSIN
   13.7478    11.8678    74.6797    90.0000    90.0000    90.0000  1  1
@<TRIPOS>ATOM
       1 CTL3         0.0000     0.0000    -0.0000 CTL3          1 cer1    
       2 CTL2        -0.0141    -0.7724    -1.3256 CTL2          1 cer1    
       3 CTL2         0.3603     0.0685    -2.5593 CTL2          1 cer1    
       4 CTL2         0.4627    -0.7575    -3.8514 CTL2          1 cer1    
       5 CTL2         0.5882     0.0971    -5.1183 CTL2          1 cer1    
       6 CTL2         0.7603    -0.7354    -6.4025 CTL2          1 cer1    
       7 CTL2         0.5078     0.0915    -7.6770 CTL2          1 cer1    
       8 CTL2         0.7363    -0.6916    -8.9731 CTL2          1 cer1    
       9 CTL2         0.2449     0.0670   -10.2128 CTL2          1 cer1    
      10 CTL2         0.5535    -0.6597   -11.5258 CTL2          1 cer1    
      11 CTL2         0.0222     0.0633   -12.7714 CTL2          1 cer1    
      12 CTL2         0.4499    -0.6632   -14.0518 CTL2          1 cer1    
      13 CTL2         0.0000    -0.0000   -15.3856 CTL2          1 cer1    
      14 CEL1         0.6219    -0.6441   -16.6067 CEL1          1 cer1    
      15 CEL1         1.0946    -1.9086   -16.6502 CEL1          1 cer1    
      16 CTL1         1.6704    -2.6201   -17.8592 CTL1          1 cer1    
      17 OHL          1.1668    -3.9549   -17.8543 OHL           1 cer1    
      18 HOL          0.2160    -3.8796   -17.9649 HOL           1 cer1    
      19 CTL1         3.2083    -2.5919   -17.8916 CTL1          1 cer1    
      20 CTL2         3.9051    -3.2735   -19.1145 CTL2          1 cer1    
      21 OHL          3.6349    -2.5587   -20.3277 OHL           1 cer1    
      22 HOL          3.9341    -3.1057   -21.0622 HOL           1 cer1    
      23 NH1          3.7989    -3.0822   -16.6066 NH1           1 cer1    
      24 HN1          4.7626    -2.7964   -16.6354 HN1           1 cer1    
      25 CLN          3.7770    -4.3679   -16.1582 CLN           1 cer1    
      26 OBL          4.8083    -4.9873   -16.3050 OBL           1 cer1    
      27 CTL2         2.9087    -4.6638   -14.9106 CTL2          1 cer1    
      28 CTL2         3.3233    -3.9758   -13.5506 CTL2          1 cer1    
      29 CTL2         2.7803    -4.6845   -12.2572 CTL2          1 cer1    
      30 CTL2         3.0202    -3.9644   -10.8806 CTL2          1 cer1    
      31 CTL2         2.7597    -4.8228    -9.5906 CTL2          1 cer1    
      32 CTL2         2.7457    -4.0580    -8.1795 CTL2          1 cer1    
      33 CTL2         2.6757    -4.8648    -6.7977 CTL2          1 cer1    
      34 CTL2         2.4230    -4.0382    -5.4740 CTL2          1 cer1    
      35 CTL2         2.4915    -4.8231    -4.0985 CTL2          1 cer1    
      36 CTL2         2.1502    -4.0108    -2.7777 CTL2          1 cer1    
      37 CTL2         2.2919    -4.7409    -1.3734 CTL2          1 cer1    
      38 CTL2         1.8692    -3.9287    -0.0764 CTL2          1 cer1    
      39 CTL2         2.0427    -4.6130     1.3509 CTL2          1 cer1    
      40 CTL2         1.5890    -3.7885     2.6374 CTL2          1 cer1    
      41 CTL2         1.7826    -4.4477     4.0753 CTL2          1 cer1    
      42 CTL2         1.3136    -3.6251     5.3627 CTL2          1 cer1    
      43 CTL2         1.5341    -4.2684     6.8077 CTL2          1 cer1    
      44 CTL2         1.0125    -3.4744     8.0943 CTL2          1 cer1    
      45 CTL2         1.2867    -4.0911     9.5453 CTL2          1 cer1    
      46 CTL2         0.7081    -3.3310    10.8301 CTL2          1 cer1    
      47 CTL2         1.0450    -3.9033    12.2856 CTL2          1 cer1    
      48 CTL2         0.4068    -3.1922    13.5695 CTL2          1 cer1    
      49 CTL2         0.8052    -3.7221    15.0256 CTL2          1 cer1    
      50 CTL2         0.1094    -3.0664    16.3099 CTL2          1 cer1    
      51 CTL2         0.5657    -3.5559    17.7620 CTL2          1 cer1    
      52 CTL2        -0.1539    -2.9493    19.0536 CTL2          1 cer1    
      53 CTL2         0.3505    -3.4269    20.4908 CTL2          1 cer1    
      54 CTL2        -0.3604    -2.8584    21.8091 CTL2          1 cer1    
      55 CTL2         0.1834    -3.3688    23.2124 CTL2          1 cer1    
      56 OS          -0.4822    -2.7940    24.3999 OS            1 cer1    
      57 CL          -0.1117    -3.3117    25.6937 CL            1 cer1    
      58 OBL          0.6872    -4.2006    25.8670 OBL           1 cer1    
      59 CTL2        -0.8267    -2.5589    26.9022 CTL2          1 cer1    
      60 CTL2        -0.5791    -3.1546    28.3729 CTL2          1 cer1    
      61 CTL2        -1.0627    -2.3064    29.6181 CTL2          1 cer1    
      62 CTL2        -0.9781    -2.9941    31.0473 CTL2          1 cer1    
      63 CTL2        -1.1646    -2.0582    32.3051 CTL2          1 cer1    
      64 CTL2        -1.3992    -2.7293    33.7190 CTL2          1 cer1    
      65 CTL2        -1.1887    -1.7943    34.9696 CTL2          1 cer1    
      66 CEL1        -2.0409    -1.9519    36.2263 CEL1          1 cer1    
      67 CEL1        -1.6283    -1.8890    37.5280 CEL1          1 cer1    
      68 CTL2        -2.5641    -1.7639    38.7233 CTL2          1 cer1    
      69 CEL1        -2.3146    -2.4596    40.0648 CEL1          1 cer1    
      70 CEL1        -2.6101    -1.9084    41.2624 CEL1          1 cer1    
      71 CTL2        -2.6534    -2.6097    42.6196 CTL2          1 cer1    
      72 CTL2        -1.9218    -1.9442    43.8211 CTL2          1 cer1    
      73 CTL2        -2.5700    -2.2148    45.2021 CTL2          1 cer1    
      74 CTL2        -1.7738    -1.7278    46.4365 CTL2          1 cer1    
      75 CTL3        -2.5284    -1.8382    47.7815 CTL3          1 cer1    
      76 HAL3         1.0200     0.3764     0.2365 HAL3          1 cer1    
      77 HAL3        -0.3237    -0.6626     0.8329 HAL3          1 cer1    
      78 HAL3        -0.6887     0.8732    -0.0386 HAL3          1 cer1    
      79 HAL2        -1.0239    -1.2158    -1.4924 HAL2          1 cer1    
      80 HAL2         0.6936    -1.6241    -1.2482 HAL2          1 cer1    
      81 HAL2         1.3412     0.5650    -2.3847 HAL2          1 cer1    
      82 HAL2        -0.4080     0.8649    -2.6913 HAL2          1 cer1    
      83 HAL2         1.3450    -1.4349    -3.7831 HAL2          1 cer1    
      84 HAL2        -0.4495    -1.3847    -3.9522 HAL2          1 cer1    
      85 HAL2        -0.3373     0.7079    -5.1942 HAL2          1 cer1    
      86 HAL2         1.4443     0.8008    -5.0192 HAL2          1 cer1    
      87 HAL2         0.0404    -1.5868    -6.3961 HAL2          1 cer1    
      88 HAL2         1.7899    -1.1592    -6.4247 HAL2          1 cer1    
      89 HAL2         1.1676     0.9854    -7.6959 HAL2          1 cer1    
      90 HAL2        -0.5398     0.4615    -7.6537 HAL2          1 cer1    
      91 HAL2         0.1874    -1.6621    -8.9193 HAL2          1 cer1    
      92 HAL2         1.8228    -0.9243    -9.0669 HAL2          1 cer1    
      93 HAL2         0.7171     1.0736   -10.2443 HAL2          1 cer1    
      94 HAL2        -0.8584     0.2060   -10.1318 HAL2          1 cer1    
      95 HAL2         1.6566    -0.7549   -11.6207 HAL2          1 cer1    
      96 HAL2         0.1386    -1.6916   -11.4832 HAL2          1 cer1    
      97 HAL2        -1.0878     0.1132   -12.7328 HAL2          1 cer1    
      98 HAL2         0.4124     1.1088   -12.7813 HAL2          1 cer1    
      99 HAL2         1.5633    -0.7322   -14.0318 HAL2          1 cer1    
     100 HAL2         0.0646    -1.7051   -14.0124 HAL2          1 cer1    
     101 HAL2        -1.1090     0.0165   -15.4534 HAL2          1 cer1    
     102 HAL2         0.3165     1.0632   -15.3506 HAL2          1 cer1    
     103 HEL1         0.6485    -0.0234   -17.5141 HEL1          1 cer1    
     104 HEL1         0.7903    -2.6074   -15.8565 HEL1          1 cer1    
     105 HAL1         1.2993    -2.0855   -18.7700 HAL1          1 cer1    
     106 HAL1         3.4880    -1.5189   -17.9471 HAL1          1 cer1    
     107 HAL2         5.0192    -3.2861   -18.9660 HAL2          1 cer1    
     108 HAL2         3.5278    -4.3156   -19.1965 HAL2          1 cer1    
     109 HAL2         1.8474    -4.4410   -15.1414 HAL2          1 cer1    
     110 HAL2         3.0270    -5.7589   -14.8124 HAL2          1 cer1    
     111 HAL2         2.9859    -2.9137   -13.5638 HAL2          1 cer1    
     112 HAL2         4.4387    -3.9541   -13.4947 HAL2          1 cer1    
     113 HAL2         1.6877    -4.8749   -12.3690 HAL2          1 cer1    
     114 HAL2         3.2898    -5.6750   -12.2096 HAL2          1 cer1    
     115 HAL2         2.3601    -3.0697   -10.8645 HAL2          1 cer1    
     116 HAL2         4.0721    -3.6136   -10.8381 HAL2          1 cer1    
     117 HAL2         1.7803    -5.3384    -9.7148 HAL2          1 cer1    
     118 HAL2         3.5470    -5.6022    -9.5366 HAL2          1 cer1    
     119 HAL2         3.6528    -3.4100    -8.1366 HAL2          1 cer1    
     120 HAL2         1.8530    -3.3970    -8.2029 HAL2          1 cer1    
     121 HAL2         3.6296    -5.4303    -6.7274 HAL2          1 cer1    
     122 HAL2         1.8514    -5.6073    -6.8736 HAL2          1 cer1    
     123 HAL2         1.4293    -3.5350    -5.5500 HAL2          1 cer1    
     124 HAL2         3.1819    -3.2276    -5.4468 HAL2          1 cer1    
     125 HAL2         1.8056    -5.7010    -4.1655 HAL2          1 cer1    
     126 HAL2         3.5210    -5.2303    -3.9800 HAL2          1 cer1    
     127 HAL2         1.1014    -3.6680    -2.8964 HAL2          1 cer1    
     128 HAL2         2.7945    -3.1050    -2.7367 HAL2          1 cer1    
     129 HAL2         3.3553    -5.0516    -1.2579 HAL2          1 cer1    
     130 HAL2         1.6738    -5.6625    -1.4166 HAL2          1 cer1    
     131 HAL2         0.7948    -3.6685    -0.1771 HAL2          1 cer1    
     132 HAL2         2.4424    -2.9750    -0.0808 HAL2          1 cer1    
     133 HAL2         3.1200    -4.8733     1.4571 HAL2          1 cer1    
     134 HAL2         1.4762    -5.5732     1.3462 HAL2          1 cer1    
     135 HAL2         2.1554    -2.8317     2.6335 HAL2          1 cer1    
     136 HAL2         0.5104    -3.5372     2.5168 HAL2          1 cer1    
     137 HAL2         1.2435    -5.4193     4.0680 HAL2          1 cer1    
     138 HAL2         2.8624    -4.6768     4.2013 HAL2          1 cer1    
     139 HAL2         0.2266    -3.4287     5.2403 HAL2          1 cer1    
     140 HAL2         1.8382    -2.6433     5.3540 HAL2          1 cer1    
     141 HAL2         2.6264    -4.4467     6.9293 HAL2          1 cer1    
     142 HAL2         1.0416    -5.2665     6.8134 HAL2          1 cer1    
     143 HAL2        -0.0858    -3.3396     7.9861 HAL2          1 cer1    
     144 HAL2         1.4668    -2.4616     8.0650 HAL2          1 cer1    
     145 HAL2         0.8789    -5.1274     9.5588 HAL2          1 cer1    
     146 HAL2         2.3903    -4.1749     9.6670 HAL2          1 cer1    
     147 HAL2         1.0723    -2.2806    10.8007 HAL2          1 cer1    
     148 HAL2        -0.3990    -3.2967    10.7282 HAL2          1 cer1    
     149 HAL2         2.1488    -3.8775    12.4030 HAL2          1 cer1    
     150 HAL2         0.7341    -4.9689    12.3047 HAL2          1 cer1    
     151 HAL2         0.6693    -2.1111    13.5245 HAL2          1 cer1    
     152 HAL2        -0.6994    -3.2745    13.4741 HAL2          1 cer1    
     153 HAL2         0.6018    -4.8147    15.0575 HAL2          1 cer1    
     154 HAL2         1.9060    -3.6025    15.1339 HAL2          1 cer1    
     155 HAL2        -0.9869    -3.2362    16.2274 HAL2          1 cer1    
     156 HAL2         0.2773    -1.9682    16.2634 HAL2          1 cer1    
     157 HAL2         0.4381    -4.6606    17.7993 HAL2          1 cer1    
     158 HAL2         1.6543    -3.3435    17.8571 HAL2          1 cer1    
     159 HAL2        -1.2366    -3.1856    18.9777 HAL2          1 cer1    
     160 HAL2        -0.0566    -1.8431    19.0128 HAL2          1 cer1    
     161 HAL2         1.4320    -3.1748    20.5574 HAL2          1 cer1    
     162 HAL2         0.2682    -4.5363    20.5166 HAL2          1 cer1    
     163 HAL2        -0.2833    -1.7493    21.8048 HAL2          1 cer1    
     164 HAL2        -1.4435    -3.1089    21.7663 HAL2          1 cer1    
     165 HAL2         1.2710    -3.1332    23.2603 HAL2          1 cer1    
     166 HAL2         0.0858    -4.4797    23.2335 HAL2          1 cer1    
     167 HAL2        -1.9173    -2.5401    26.6899 HAL2          1 cer1    
     168 HAL2        -0.4589    -1.5127    26.8672 HAL2          1 cer1    
     169 HAL2         0.5149    -3.3237    28.5070 HAL2          1 cer1    
     170 HAL2        -1.0577    -4.1578    28.4245 HAL2          1 cer1    
     171 HAL2        -0.4573    -1.3714    29.6485 HAL2          1 cer1    
     172 HAL2        -2.1203    -2.0011    29.4662 HAL2          1 cer1    
     173 HAL2        -1.7462    -3.7983    31.0840 HAL2          1 cer1    
     174 HAL2         0.0130    -3.4828    31.1550 HAL2          1 cer1    
     175 HAL2        -2.0342    -1.3869    32.1258 HAL2          1 cer1    
     176 HAL2        -0.2594    -1.4133    32.3674 HAL2          1 cer1    
     177 HAL2        -0.7188    -3.6016    33.8376 HAL2          1 cer1    
     178 HAL2        -2.4392    -3.1258    33.7238 HAL2          1 cer1    
     179 HAL2        -0.1037    -1.8055    35.2207 HAL2          1 cer1    
     180 HAL2        -1.3928    -0.7630    34.6036 HAL2          1 cer1    
     181 HEL1        -3.1254    -1.9494    36.0339 HEL1          1 cer1    
     182 HEL1        -0.5595    -1.7352    37.7461 HEL1          1 cer1    
     183 HAL2        -2.6770    -0.6709    38.9106 HAL2          1 cer1    
     184 HAL2        -3.5802    -2.0755    38.3978 HAL2          1 cer1    
     185 HEL1        -2.0517    -3.5276    40.0252 HEL1          1 cer1    
     186 HEL1        -3.0120    -0.8831    41.2684 HEL1          1 cer1    
     187 HAL2        -2.2382    -3.6413    42.5895 HAL2          1 cer1    
     188 HAL2        -3.7286    -2.7055    42.8942 HAL2          1 cer1    
     189 HAL2        -1.9554    -0.8537    43.6469 HAL2          1 cer1    
     190 HAL2        -0.8472    -2.2630    43.8536 HAL2          1 cer1    
     191 HAL2        -3.5441    -1.6890    45.2316 HAL2          1 cer1    
     192 HAL2        -2.7708    -3.3157    45.2792 HAL2          1 cer1    
     193 HAL2        -1.4784    -0.6628    46.3564 HAL2          1 cer1    
     194 HAL2        -0.8437    -2.3407    46.4505 HAL2          1 cer1    
     195 HAL3        -3.4377    -1.1954    47.8222 HAL3          1 cer1    
     196 HAL3        -2.8900    -2.8733    47.9372 HAL3          1 cer1    
     197 HAL3        -1.8470    -1.5524    48.6175 HAL3          1 cer1    
@<TRIPOS>BOND
       1       56       57 1
       2      164       54 1
       3      143       44 1
       4      151       48 1
       5       40       41 1
       6       34      124 1
       7        5       85 1
       8       74      194 1
       9       60       61 1
      10       70       69 1
      11        6        7 1
      12        2       79 1
      13       27      110 1
      14       62       63 1
      15       45       46 1
      16        8        9 1
      17       31      118 1
      18       11       12 1
      19       65       66 1
      20       33       34 1
      21       30       31 1
      22        5       86 1
      23       34       35 1
      24       71       70 1
      25       46       47 1
      26       13       14 1
      27       39      134 1
      28        9       93 1
      29       16       17 1
      30       66      181 1
      31       16      105 1
      32        3       81 1
      33       13      101 1
      34      137       41 1
      35       37      130 1
      36       61      172 1
      37       75      196 1
      38       19       23 1
      39       72      190 1
      40       53       54 1
      41       36       37 1
      42       74       75 1
      43      169       60 1
      44       25       27 1
      45       65      180 1
      46      163       54 1
      47      140       42 1
      48       73      192 1
      49       16       19 1
      50       31      117 1
      51        8       92 1
      52       35       36 1
      53       28       29 1
      54       11       97 1
      55       47       48 1
      56       50       49 1
      57       28      112 1
      58       10       96 1
      59      150       47 1
      60       20      108 1
      61        1       78 1
      62      161       53 1
      63        3       82 1
      64       71       72 1
      65       13      102 1
      66        1        2 1
      67       31       32 1
      68       41       42 1
      69       63      176 1
      70       66       67 1
      71      162       53 1
      72       72      189 1
      73       12       13 1
      74       73      191 1
      75        7       90 1
      76      149       47 1
      77      154       49 1
      78       28      111 1
      79       55       56 1
      80       32       33 1
      81       37       38 1
      82      159       52 1
      83        7       89 1
      84       35      126 1
      85      168       59 1
      86      152       48 1
      87      155       50 1
      88       37      129 1
      89       75      195 1
      90        4       84 1
      91       51       52 1
      92       72       73 1
      93      160       52 1
      94        1       77 1
      95       71      187 1
      96      166       55 1
      97       70      186 1
      98       42       43 1
      99       33      121 1
     100       21       22 1
     101      136       40 1
     102       39      133 1
     103       12      100 1
     104       11       98 1
     105       14       15 1
     106        2        3 1
     107       19      106 1
     108       67      182 1
     109       10       95 1
     110       14      103 1
     111       75      197 1
     112       68       67 1
     113        6       88 1
     114       54       55 1
     115       62      174 1
     116      158       51 1
     117        9       94 1
     118       39       40 1
     119       35      125 1
     120        6       87 1
     121      138       41 1
     122        1       76 1
     123       65      179 1
     124       57       58 1
     125       29      113 1
     126        3        4 1
     127       68      183 1
     128       64      178 1
     129       23       24 1
     130       32      120 1
     131       27       28 1
     132        4       83 1
     133       15      104 1
     134       71      188 1
     135       62      173 1
     136       64      177 1
     137      170       60 1
     138       20       21 1
     139       38      131 1
     140      142       43 1
     141       36      127 1
     142       57       59 1
     143       29      114 1
     144      153       49 1
     145       61       62 1
     146        7        8 1
     147        4        5 1
     148       43       44 1
     149      171       61 1
     150       68      184 1
     151       38       39 1
     152       23       25 1
     153      146       45 1
     154       19       20 1
     155       30      116 1
     156       63       64 1
     157        9       10 1
     158       29       30 1
     159       63      175 1
     160        8       91 1
     161       15       16 1
     162      145       45 1
     163      156       50 1
     164       74      193 1
     165       59       60 1
     166        5        6 1
     167       27      109 1
     168       12       99 1
     169      167       59 1
     170       52       53 1
     171       51       50 1
     172       73       74 1
     173       25       26 1
     174       69      185 1
     175       44       45 1
     176       68       69 1
     177       40      135 1
     178      147       46 1
     179       17       18 1
     180       32      119 1
     181      157       51 1
     182       34      123 1
     183       48       49 1
     184       64       65 1
     185       10       11 1
     186       33      122 1
     187      144       44 1
     188        2       80 1
     189       30      115 1
     190       38      132 1
     191      148       46 1
     192       20      107 1
     193      139       42 1
     194       36      128 1
     195      165       55 1
     196      141       43 1
@<TRIPOS>SUBSTRUCTURE
       1 cer1            1 RESIDUE    0 **** ROOT      0
