@<TRIPOS>MOLECULE
ecer6
109 108 1 0 1
SMALL
NO_CHARGES
@<TRIPOS>CRYSIN
   11.5562     9.4373    28.4452    90.0000    90.0000    90.0000  1  1
@<TRIPOS>ATOM
       1 NH1         -2.2727    -0.7090    -0.1323 NH1           1 ecer6   
       2 HN1         -2.5624    -1.2079     0.6795 HN1           1 ecer6   
       3 CLN         -2.6674    -1.1141    -1.3517 CLN           1 ecer6   
       4 OBL         -3.3821    -2.0979    -1.4515 OBL           1 ecer6   
       5 CTL2        -2.2142    -0.3374    -2.5802 CTL2          1 ecer6   
       6 HAL2        -1.0773    -0.3390    -2.6446 HAL2          1 ecer6   
       7 OHL         -2.5864     0.7064    -2.5016 OHL           1 ecer6   
       8 CTL2        -2.8081    -1.0168    -3.8162 CTL2          1 ecer6   
       9 HAL2        -2.4448    -2.0663    -3.8777 HAL2          1 ecer6   
      10 HAL2        -3.9179    -1.0075    -3.7518 HAL2          1 ecer6   
      11 CTL2        -2.3593    -0.2450    -5.0558 CTL2          1 ecer6   
      12 HAL2        -2.7223     0.8054    -4.9912 HAL2          1 ecer6   
      13 HAL2        -1.2492    -0.2534    -5.1172 HAL2          1 ecer6   
      14 CTL2        -2.9462    -0.9126    -6.3025 CTL2          1 ecer6   
      15 HAL2        -2.5827    -1.9600    -6.3659 HAL2          1 ecer6   
      16 HAL2        -4.0542    -0.9035    -6.2411 HAL2          1 ecer6   
      17 CTL2        -2.4982    -0.1386    -7.5439 CTL2          1 ecer6   
      18 HAL2        -2.8600     0.9066    -7.4807 HAL2          1 ecer6   
      19 HAL2        -1.3895    -0.1488    -7.6074 HAL2          1 ecer6   
      20 CTL2        -3.0833    -0.8075    -8.7917 CTL2          1 ecer6   
      21 HAL2        -2.7219    -1.8546    -8.8561 HAL2          1 ecer6   
      22 HAL2        -4.1932    -0.7981    -8.7293 HAL2          1 ecer6   
      23 CTL2        -2.6367    -0.0363   -10.0343 CTL2          1 ecer6   
      24 HAL2        -2.9991     1.0120    -9.9708 HAL2          1 ecer6   
      25 HAL2        -1.5267    -0.0446   -10.0967 HAL2          1 ecer6   
      26 CTL2        -3.2227    -0.7040   -11.2810 CTL2          1 ecer6   
      27 HAL2        -2.8591    -1.7505   -11.3444 HAL2          1 ecer6   
      28 HAL2        -4.3315    -0.6938   -11.2196 HAL2          1 ecer6   
      29 CTL2        -2.7748     0.0690   -12.5235 CTL2          1 ecer6   
      30 HAL2        -3.1365     1.1152   -12.4602 HAL2          1 ecer6   
      31 HAL2        -1.6659     0.0598   -12.5849 HAL2          1 ecer6   
      32 CTL2        -3.3608    -0.5988   -13.7702 CTL2          1 ecer6   
      33 HAL2        -2.9984    -1.6470   -13.8336 HAL2          1 ecer6   
      34 HAL2        -4.4687    -0.5897   -13.7079 HAL2          1 ecer6   
      35 CTL2        -2.9123     0.1723   -15.0139 CTL2          1 ecer6   
      36 HAL2        -3.2745     1.2215   -14.9494 HAL2          1 ecer6   
      37 HAL2        -1.8020     0.1648   -15.0742 HAL2          1 ecer6   
      38 CTL2        -3.4990    -0.4945   -16.2595 CTL2          1 ecer6   
      39 HAL2        -3.1367    -1.5427   -16.3239 HAL2          1 ecer6   
      40 HAL2        -4.6080    -0.4863   -16.1971 HAL2          1 ecer6   
      41 CTL2        -3.0514     0.2766   -17.5021 CTL2          1 ecer6   
      42 HAL2        -3.4126     1.3257   -17.4376 HAL2          1 ecer6   
      43 HAL2        -1.9414     0.2683   -17.5645 HAL2          1 ecer6   
      44 CTL2        -3.6362    -0.3904   -18.7478 CTL2          1 ecer6   
      45 HAL2        -3.2749    -1.4384   -18.8122 HAL2          1 ecer6   
      46 HAL2        -4.7462    -0.3809   -18.6873 HAL2          1 ecer6   
      47 CTL3        -3.1895     0.3819   -19.9913 CTL3          1 ecer6   
      48 HAL3        -3.5519     1.4302   -19.9279 HAL3          1 ecer6   
      49 HAL3        -2.0804     0.3736   -20.0516 HAL3          1 ecer6   
      50 HAL3        -3.7764    -0.2858   -21.2370 HAL3          1 ecer6   
      51 CTL1        -1.4339     0.4430    -0.0002 CTL1          1 ecer6   
      52 HAL1        -1.6078     1.1690    -0.8240 HAL1          1 ecer6   
      53 CTL2        -1.7437     1.1739     1.3156 CTL2          1 ecer6   
      54 HAL2        -1.5065     0.4804     2.1512 HAL2          1 ecer6   
      55 HAL2        -1.0644     2.0453     1.4340 HAL2          1 ecer6   
      56 OHL         -3.0954     1.6010     1.3597 OHL           1 ecer6   
      57 HOL         -3.2695     2.0141     2.2082 HOL           1 ecer6   
      58 CTL1         0.0000     0.0000     0.0000 CTL1          1 ecer6   
      59 HAL1         0.0621    -1.1042    -0.1071 HAL1          1 ecer6   
      60 OHL          0.7218     0.4209     1.1473 OHL           1 ecer6   
      61 HOL          1.6365     0.1323     1.0980 HOL           1 ecer6   
      62 CTL1         0.7040     0.5415    -1.2096 CTL1          1 ecer6   
      63 HAL1         1.8101     0.6401    -0.9510 HAL1          1 ecer6   
      64 OHL          0.1948     1.9418    -1.3933 OHL           1 ecer6   
      65 HOL          0.7108     2.3394    -2.2798 HOL           1 ecer6   
      66 CTL2         0.6185    -0.0450    -2.4099 CTL2          1 ecer6   
      67 HAL2         1.5209    -0.7374    -2.4870 HAL2          1 ecer6   
      68 HAL2        -0.2973    -0.7227    -2.3938 HAL2          1 ecer6   
      69 CTL2         0.5815     0.7294    -3.6970 CTL2          1 ecer6   
      70 HAL2        -0.3211     1.3762    -3.7378 HAL2          1 ecer6   
      71 HAL2         1.4651     1.3939    -3.8095 HAL2          1 ecer6   
      72 CTL2         0.5454    -0.2145    -4.9014 CTL2          1 ecer6   
      73 HAL2         1.4703    -0.8283    -4.9532 HAL2          1 ecer6   
      74 HAL2        -0.3692    -0.8451    -4.8818 HAL2          1 ecer6   
      75 CTL2         0.4874     0.6706    -6.1462 CTL2          1 ecer6   
      76 HAL2        -0.4433     1.2737    -6.2302 HAL2          1 ecer6   
      77 HAL2         1.3943     1.2918    -6.3034 HAL2          1 ecer6   
      78 CTL2         0.4510    -0.3291    -7.3026 CTL2          1 ecer6   
      79 HAL2         1.3674    -0.9455    -7.4453 HAL2          1 ecer6   
      80 HAL2        -0.4600    -0.9619    -7.3745 HAL2          1 ecer6   
      81 CTL2         0.3938     0.5432    -8.5582 CTL2          1 ecer6   
      82 HAL2        -0.5265     1.1438    -8.7220 HAL2          1 ecer6   
      83 HAL2         1.2848     1.1613    -8.7940 HAL2          1 ecer6   
      84 CTL2         0.3562    -0.4332    -9.7343 CTL2          1 ecer6   
      85 HAL2         1.2558    -1.0536    -9.9346 HAL2          1 ecer6   
      86 HAL2        -0.5448    -1.0734    -9.8642 HAL2          1 ecer6   
      87 CTL2         0.2977     0.4072   -11.0127 CTL2          1 ecer6   
      88 HAL2        -0.6104     1.0149   -11.2097 HAL2          1 ecer6   
      89 HAL2         1.1757     1.0325   -11.2815 HAL2          1 ecer6   
      90 CTL2         0.2588    -0.5343   -12.2188 CTL2          1 ecer6   
      91 HAL2         1.1473    -1.1693   -12.4224 HAL2          1 ecer6   
      92 HAL2        -0.6294    -1.1852   -12.3500 HAL2          1 ecer6   
      93 CTL2         0.2006     0.2640   -13.5246 CTL2          1 ecer6   
      94 HAL2        -0.7020     0.8901   -13.6999 HAL2          1 ecer6   
      95 HAL2         1.0732     0.9080   -13.7691 HAL2          1 ecer6   
      96 CTL2         0.1610    -0.6409   -14.7548 CTL2          1 ecer6   
      97 HAL2         1.0503    -1.2894   -14.9120 HAL2          1 ecer6   
      98 HAL2        -0.7257    -1.3052   -14.8436 HAL2          1 ecer6   
      99 CTL2         0.1020     0.1327   -16.0709 CTL2          1 ecer6   
     100 HAL2        -0.8020     0.7703   -16.1893 HAL2          1 ecer6   
     101 HAL2         0.9781     0.7877   -16.2598 HAL2          1 ecer6   
     102 CTL2         0.0603    -0.7591   -17.3143 CTL2          1 ecer6   
     103 HAL2         0.9575    -1.4114   -17.3939 HAL2          1 ecer6   
     104 HAL2        -0.8230    -1.4330   -17.3206 HAL2          1 ecer6   
     105 CTL3         0.0000    -0.0000   -18.6402 CTL3          1 ecer6   
     106 HAL3        -0.0310    -0.6454   -19.5426 HAL3          1 ecer6   
     107 HAL3        -0.8996     0.6498   -18.6890 HAL3          1 ecer6   
     108 HAL3         0.8836     0.6691   -18.7444 HAL3          1 ecer6   
     109 HOL         -2.4583     1.6970    -2.4531 HOL           1 ecer6   
@<TRIPOS>BOND
       1       93       94 1
       2       87       88 1
       3        3        5 1
       4       34       32 1
       5       40       38 1
       6       29       32 1
       7       87       90 1
       8       96       98 1
       9       99      100 1
      10       51       52 1
      11       29       30 1
      12      102      103 1
      13       66       67 1
      14       17       18 1
      15       69       71 1
      16      105      107 1
      17       56       57 1
      18        8       10 1
      19       96       99 1
      20       72       74 1
      21       84       86 1
      22       47       49 1
      23       81       83 1
      24       11       14 1
      25       36       35 1
      26       90       91 1
      27       20       21 1
      28        7      109 1
      29       78       81 1
      30       20       22 1
      31       99      102 1
      32       58       59 1
      33       84       87 1
      34       81       84 1
      35       87       89 1
      36       62       66 1
      37      102      104 1
      38       66       68 1
      39      102      105 1
      40       66       69 1
      41       72       75 1
      42       44       45 1
      43       51       53 1
      44       99      101 1
      45       29       31 1
      46       75       78 1
      47       53       56 1
      48        8       11 1
      49       11       13 1
      50        1        2 1
      51       14       15 1
      52       90       92 1
      53       17       20 1
      54       26       27 1
      55       53       55 1
      56       93       96 1
      57       23       26 1
      58      105      106 1
      59       69       70 1
      60       41       43 1
      61       35       32 1
      62        5        6 1
      63       60       61 1
      64       23       24 1
      65       26       29 1
      66       14       16 1
      67        5        8 1
      68       81       82 1
      69       93       95 1
      70       23       25 1
      71       78       79 1
      72       44       46 1
      73       41       38 1
      74       75       77 1
      75       44       47 1
      76       26       28 1
      77       11       12 1
      78       75       76 1
      79       20       23 1
      80       14       17 1
      81       62       63 1
      82       47       48 1
      83        3        4 1
      84       69       72 1
      85       78       80 1
      86      105      108 1
      87       58       62 1
      88       64       65 1
      89       84       85 1
      90       39       38 1
      91       51       58 1
      92       96       97 1
      93        5        7 1
      94        1       51 1
      95       41       42 1
      96       72       73 1
      97       90       93 1
      98       62       64 1
      99       35       38 1
     100       47       50 1
     101       32       33 1
     102       53       54 1
     103       58       60 1
     104        1        3 1
     105       35       37 1
     106       17       19 1
     107       41       44 1
     108        8        9 1
@<TRIPOS>SUBSTRUCTURE
       1 ecer6           1 RESIDUE    0 **** ROOT      0
