@<TRIPOS>MOLECULE
ecer6
109 108 1 0 1
SMALL
NO_CHARGES
@<TRIPOS>CRYSIN
    9.9197    11.2584    28.4961    90.0000    90.0000    90.0000  1  1
@<TRIPOS>ATOM
       1 NH1         -1.1700    -0.6316    19.8656 NH1           1 ecer6   
       2 HN1         -1.7093    -0.9242    20.6501 HN1           1 ecer6   
       3 CLN         -1.6087    -0.8685    18.6172 CLN           1 ecer6   
       4 OBL         -2.6726    -1.4440    18.4575 OBL           1 ecer6   
       5 CTL2        -0.7692    -0.4138    17.4313 CTL2          1 ecer6   
       6 HAL2        -0.6289     0.7158    17.4637 HAL2          1 ecer6   
       7 OHL          0.2193    -0.9185    17.4776 OHL           1 ecer6   
       8 CTL2        -1.5046    -0.8121    16.1497 CTL2          1 ecer6   
       9 HAL2        -2.5001    -0.3168    16.1197 HAL2          1 ecer6   
      10 HAL2        -1.6340    -1.9158    16.1196 HAL2          1 ecer6   
      11 CTL2        -0.6704    -0.3600    14.9523 CTL2          1 ecer6   
      12 HAL2         0.3259    -0.8554    14.9854 HAL2          1 ecer6   
      13 HAL2        -0.5402     0.7436    14.9854 HAL2          1 ecer6   
      14 CTL2        -1.3932    -0.7520    13.6606 CTL2          1 ecer6   
      15 HAL2        -2.3866    -0.2567    13.6287 HAL2          1 ecer6   
      16 HAL2        -1.5224    -1.8536    13.6277 HAL2          1 ecer6   
      17 CTL2        -0.5569    -0.3009    12.4613 CTL2          1 ecer6   
      18 HAL2         0.4345    -0.7942    12.4932 HAL2          1 ecer6   
      19 HAL2        -0.4286     0.8018    12.4923 HAL2          1 ecer6   
      20 CTL2        -1.2806    -0.6908    11.1686 CTL2          1 ecer6   
      21 HAL2        -2.2740    -0.1975    11.1357 HAL2          1 ecer6   
      22 HAL2        -1.4099    -1.7944    11.1366 HAL2          1 ecer6   
      23 CTL2        -0.4473    -0.2407     9.9682 CTL2          1 ecer6   
      24 HAL2         0.5471    -0.7350    10.0001 HAL2          1 ecer6   
      25 HAL2        -0.3170     0.8629    10.0002 HAL2          1 ecer6   
      26 CTL2        -1.1700    -0.6316     8.6765 CTL2          1 ecer6   
      27 HAL2        -2.1624    -0.1363     8.6447 HAL2          1 ecer6   
      28 HAL2        -1.2983    -1.7342     8.6436 HAL2          1 ecer6   
      29 CTL2        -0.3347    -0.1805     7.4762 CTL2          1 ecer6   
      30 HAL2         0.6577    -0.6738     7.5081 HAL2          1 ecer6   
      31 HAL2        -0.2055     0.9221     7.5092 HAL2          1 ecer6   
      32 CTL2        -1.0575    -0.5715     6.1845 CTL2          1 ecer6   
      33 HAL2        -2.0519    -0.0772     6.1525 HAL2          1 ecer6   
      34 HAL2        -1.1868    -1.6731     6.1525 HAL2          1 ecer6   
      35 CTL2        -0.2241    -0.1193     4.9831 CTL2          1 ecer6   
      36 HAL2         0.7713    -0.6136     5.0161 HAL2          1 ecer6   
      37 HAL2        -0.0929     0.9843     5.0172 HAL2          1 ecer6   
      38 CTL2        -0.9459    -0.5113     3.6924 CTL2          1 ecer6   
      39 HAL2        -1.9402    -0.0170     3.6595 HAL2          1 ecer6   
      40 HAL2        -1.0762    -1.6139     3.6604 HAL2          1 ecer6   
      41 CTL2        -0.1126    -0.0602     2.4920 CTL2          1 ecer6   
      42 HAL2         0.8828    -0.5535     2.5251 HAL2          1 ecer6   
      43 HAL2         0.0177     1.0435     2.5241 HAL2          1 ecer6   
      44 CTL2        -0.8344    -0.4501     1.2014 CTL2          1 ecer6   
      45 HAL2        -1.8287     0.0432     1.1684 HAL2          1 ecer6   
      46 HAL2        -0.9635    -1.5537     1.1674 HAL2          1 ecer6   
      47 CTL3         0.0000     0.0000    -0.0000 CTL3          1 ecer6   
      48 HAL3         0.9944    -0.4943     0.0320 HAL3          1 ecer6   
      49 HAL3         0.1302     1.1026     0.0340 HAL3          1 ecer6   
      50 HAL3        -0.7228    -0.3920    -1.2907 HAL3          1 ecer6   
      51 CTL1         0.0758     0.0428    20.0680 CTL1          1 ecer6   
      52 HAL1         0.7830    -0.1502    19.2320 HAL1          1 ecer6   
      53 CTL2         0.7491    -0.4655    21.3524 CTL2          1 ecer6   
      54 HAL2         0.0821    -0.2150    22.2054 HAL2          1 ecer6   
      55 HAL2         1.6970     0.0874    21.5276 HAL2          1 ecer6   
      56 OHL          1.0045    -1.8588    21.2814 OHL           1 ecer6   
      57 HOL          1.3842    -2.1539    22.1118 HOL           1 ecer6   
      58 CTL1        -0.1855     1.5156    20.1901 CTL1          1 ecer6   
      59 HAL1        -1.2723     1.7237    20.0891 HAL1          1 ecer6   
      60 OHL          0.3101     2.0800    21.3943 OHL           1 ecer6   
      61 HOL          0.1379     3.0244    21.4229 HOL           1 ecer6   
      62 CTL1         0.4515     2.2461    19.0444 CTL1          1 ecer6   
      63 HAL1         0.6841     3.3054    19.3959 HAL1          1 ecer6   
      64 OHL          1.7795     1.5836    18.8175 OHL           1 ecer6   
      65 HOL          2.2471     2.1188    17.9778 HOL           1 ecer6   
      66 CTL2        -0.1288     2.3359    17.8414 CTL2          1 ecer6   
      67 HAL2        -0.7030     3.3208    17.8415 HAL2          1 ecer6   
      68 HAL2        -0.9153     1.5137    17.7800 HAL2          1 ecer6   
      69 CTL2         0.6480     2.3112    16.5555 CTL2          1 ecer6   
      70 HAL2         1.1780     1.3417    16.4379 HAL2          1 ecer6   
      71 HAL2         1.4182     3.1113    16.5181 HAL2          1 ecer6   
      72 CTL2        -0.2808     2.4948    15.3527 CTL2          1 ecer6   
      73 HAL2        -0.7744     3.4900    15.3800 HAL2          1 ecer6   
      74 HAL2        -1.0204     1.6675    15.2949 HAL2          1 ecer6   
      75 CTL2         0.6028     2.4320    14.1071 CTL2          1 ecer6   
      76 HAL2         1.0863     1.4438    13.9442 HAL2          1 ecer6   
      77 HAL2         1.3335     3.2644    14.0272 HAL2          1 ecer6   
      78 CTL2        -0.3819     2.6181    12.9522 CTL2          1 ecer6   
      79 HAL2        -0.8782     3.6130    12.8881 HAL2          1 ecer6   
      80 HAL2        -1.1222     1.8025    12.8035 HAL2          1 ecer6   
      81 CTL2         0.4893     2.5587    11.6960 CTL2          1 ecer6   
      82 HAL2         0.9725     1.5877    11.4543 HAL2          1 ecer6   
      83 HAL2         1.2156     3.3823    11.5364 HAL2          1 ecer6   
      84 CTL2        -0.4722     2.7423    10.5213 CTL2          1 ecer6   
      85 HAL2        -0.9740     3.7259    10.3984 HAL2          1 ecer6   
      86 HAL2        -1.2181     1.9424    10.3157 HAL2          1 ecer6   
      87 CTL2         0.3673     2.6875     9.2423 CTL2          1 ecer6   
      88 HAL2         0.8594     1.7306     8.9685 HAL2          1 ecer6   
      89 HAL2         1.0996     3.5002     9.0487 HAL2          1 ecer6   
      90 CTL2        -0.5594     2.8681     8.0376 CTL2          1 ecer6   
      91 HAL2        -1.0770     3.8428     7.9105 HAL2          1 ecer6   
      92 HAL2        -1.3143     2.0822     7.8317 HAL2          1 ecer6   
      93 CTL2         0.2386     2.8211     6.7312 CTL2          1 ecer6   
      94 HAL2         0.7494     1.8655     6.4797 HAL2          1 ecer6   
      95 HAL2         0.9886     3.6241     6.5614 HAL2          1 ecer6   
      96 CTL2        -0.6516     2.9984     5.5025 CTL2          1 ecer6   
      97 HAL2        -1.1830     3.9718     5.4217 HAL2          1 ecer6   
      98 HAL2        -1.4200     2.2122     5.3390 HAL2          1 ecer6   
      99 CTL2         0.1220     2.9547     4.1858 CTL2          1 ecer6   
     100 HAL2         0.6435     1.9914     3.9908 HAL2          1 ecer6   
     101 HAL2         0.8827     3.7550     4.0717 HAL2          1 ecer6   
     102 CTL2        -0.7555     3.1294     2.9437 CTL2          1 ecer6   
     103 HAL2        -1.2904     4.1044     2.9409 HAL2          1 ecer6   
     104 HAL2        -1.5337     2.3408     2.8627 HAL2          1 ecer6   
     105 CTL3         0.0037     3.0869     1.6172 CTL3          1 ecer6   
     106 HAL3        -0.6313     3.2129     0.7157 HAL3          1 ecer6   
     107 HAL3         0.5372     2.1206     1.4919 HAL3          1 ecer6   
     108 HAL3         0.7784     3.8858     1.5880 HAL3          1 ecer6   
     109 HOL          1.2176    -0.9194    17.5363 HOL           1 ecer6   
@<TRIPOS>BOND
       1       93       94 1
       2       87       88 1
       3       35       32 1
       4        3        5 1
       5       40       38 1
       6       29       32 1
       7       87       90 1
       8       96       98 1
       9       99      100 1
      10       51       52 1
      11       29       30 1
      12      102      103 1
      13       66       67 1
      14       17       18 1
      15      105      107 1
      16       69       71 1
      17       56       57 1
      18       36       35 1
      19        8       10 1
      20       96       99 1
      21       72       74 1
      22       84       86 1
      23       47       49 1
      24       81       83 1
      25       11       14 1
      26       90       91 1
      27       20       21 1
      28        7      109 1
      29       78       81 1
      30       20       22 1
      31       99      102 1
      32       58       62 1
      33       84       87 1
      34       81       84 1
      35       87       89 1
      36       62       66 1
      37      102      104 1
      38       66       68 1
      39      102      105 1
      40       66       69 1
      41       72       75 1
      42       44       45 1
      43       51       53 1
      44       99      101 1
      45       29       31 1
      46       75       78 1
      47       53       56 1
      48        8       11 1
      49       11       13 1
      50       14       15 1
      51       90       92 1
      52       17       20 1
      53       58       60 1
      54       26       27 1
      55       53       55 1
      56       93       96 1
      57       23       26 1
      58      105      106 1
      59       69       70 1
      60       41       43 1
      61       34       32 1
      62        5        6 1
      63        1        2 1
      64       60       61 1
      65       23       24 1
      66       26       29 1
      67       14       16 1
      68        1        3 1
      69        5        8 1
      70        1       51 1
      71       81       82 1
      72       93       95 1
      73       23       25 1
      74       78       79 1
      75       44       46 1
      76       41       38 1
      77       75       77 1
      78       44       47 1
      79       26       28 1
      80       11       12 1
      81       75       76 1
      82       20       23 1
      83       14       17 1
      84       62       63 1
      85       47       48 1
      86        3        4 1
      87      105      108 1
      88       58       59 1
      89       69       72 1
      90       78       80 1
      91       64       65 1
      92       84       85 1
      93       39       38 1
      94       51       58 1
      95       96       97 1
      96        5        7 1
      97       41       42 1
      98       72       73 1
      99       90       93 1
     100       62       64 1
     101       35       38 1
     102       47       50 1
     103       32       33 1
     104       53       54 1
     105       35       37 1
     106       17       19 1
     107       41       44 1
     108        8        9 1
@<TRIPOS>SUBSTRUCTURE
       1 ecer6           1 RESIDUE    0 **** ROOT      0
