@<TRIPOS>MOLECULE
ISIS
110 109 1 0 1
SMALL
USER_CHARGES
@<TRIPOS>CRYSIN
    9.1429    17.1002    26.3658    90.0000    90.0000    90.0000  1  1
@<TRIPOS>ATOM
       1 OG302        0.9444    -1.6666     1.8100 OG302         1 ISIS      -0.489000
       2 CG2O2        0.5441    -0.3408     1.5057 CG2O2         1 ISIS       0.900000
       3 OG2D1        0.5107     0.5043     2.3567 OG2D1         1 ISIS      -0.632000
       4 CG321        0.0000     0.0000     0.0000 CG321         1 ISIS      -0.219000
       5 CG321        0.8315    -0.0166    -1.3838 CG321         1 ISIS      -0.180000
       6 HGA2        -0.3942     1.0242     0.1113 HGA2          1 ISIS       0.090000
       7 HGA2        -0.9278    -0.5784    -0.1618 HGA2          1 ISIS       0.090000
       8 HGA2         1.6858    -0.7067    -1.4032 HGA2          1 ISIS       0.090000
       9 HGA2         1.3180     0.9711    -1.5098 HGA2          1 ISIS       0.090000
      10 CG321        0.0370    -0.3730    -2.6945 CG321         1 ISIS      -0.180000
      11 CG321        0.9086    -0.6363    -3.9707 CG321         1 ISIS      -0.180000
      12 HGA2        -0.6643     0.4453    -2.9363 HGA2          1 ISIS       0.090000
      13 HGA2        -0.5735    -1.2872    -2.5565 HGA2          1 ISIS       0.090000
      14 HGA2         1.6316    -1.4529    -3.7738 HGA2          1 ISIS       0.090000
      15 HGA2         1.5182     0.2564    -4.2032 HGA2          1 ISIS       0.090000
      16 CG321        0.0935    -0.9845    -5.2354 CG321         1 ISIS      -0.180000
      17 CG321        0.9405    -1.2584    -6.4772 CG321         1 ISIS      -0.180000
      18 HGA2        -0.5958    -0.1474    -5.4774 HGA2          1 ISIS       0.090000
      19 HGA2        -0.5518    -1.8765    -5.0778 HGA2          1 ISIS       0.090000
      20 HGA2         1.6435    -2.1103    -6.3112 HGA2          1 ISIS       0.090000
      21 HGA2         1.5695    -0.3674    -6.7137 HGA2          1 ISIS       0.090000
      22 CG321        0.0684    -1.5540    -7.6940 CG321         1 ISIS      -0.180000
      23 CG321        0.9247    -1.7806    -8.9118 CG321         1 ISIS      -0.180000
      24 HGA2        -0.6287    -0.7008    -7.8815 HGA2          1 ISIS       0.090000
      25 HGA2        -0.5702    -2.4557    -7.5491 HGA2          1 ISIS       0.090000
      26 HGA2         1.5864    -2.6650    -8.7825 HGA2          1 ISIS       0.090000
      27 HGA2         1.5779    -0.8885    -9.0811 HGA2          1 ISIS       0.090000
      28 CG321        0.0430    -1.9854   -10.1165 CG321         1 ISIS      -0.180000
      29 CG321        0.9582    -2.1112   -11.2932 CG321         1 ISIS      -0.180000
      30 HGA2        -0.6345    -1.1178   -10.2651 HGA2          1 ISIS       0.090000
      31 HGA2        -0.5780    -2.9041   -10.0282 HGA2          1 ISIS       0.090000
      32 HGA2         1.6533    -2.9796   -11.1584 HGA2          1 ISIS       0.090000
      33 HGA2         1.5852    -1.1913   -11.4030 HGA2          1 ISIS       0.090000
      34 CG321        0.1342    -2.3105   -12.5188 CG321         1 ISIS      -0.180000
      35 CG321        1.1250    -2.4517   -13.6197 CG321         1 ISIS      -0.148000
      36 HGA2        -0.5264    -1.4325   -12.6900 HGA2          1 ISIS       0.090000
      37 HGA2        -0.5101    -3.2251   -12.4460 HGA2          1 ISIS       0.090000
      38 HGA2         1.8873    -3.2510   -13.4389 HGA2          1 ISIS       0.090000
      39 HGA2         1.6638    -1.4754   -13.6855 HGA2          1 ISIS       0.090000
      40 CG321        0.3789    -2.7482   -14.8715 CG321         1 ISIS      -0.194000
      41 CG321        1.2017    -2.2007   -16.0050 CG321         1 ISIS      -0.203000
      42 HGA2        -0.6048    -2.2297   -14.8054 HGA2          1 ISIS       0.090000
      43 HGA2         0.1479    -3.8211   -15.0100 HGA2          1 ISIS       0.090000
      44 HGA2         1.6837    -3.0568   -16.5140 HGA2          1 ISIS       0.090000
      45 HGA2         2.0479    -1.5478   -15.6753 HGA2          1 ISIS       0.090000
      46 CG311        0.2697    -1.3695   -16.8770 CG311         1 ISIS      -0.083000
      47 CG331        0.7284    -1.6110   -18.3265 CG331         1 ISIS      -0.271000
      48 HGA1        -0.7386    -1.8634   -16.8699 HGA1          1 ISIS       0.090000
      49 HGA3         1.1232    -2.6509   -18.3782 HGA3          1 ISIS       0.090000
      50 HGA3         1.5197    -0.9568   -18.7138 HGA3          1 ISIS       0.090000
      51 HGA3        -0.1527    -1.6415   -19.0091 HGA3          1 ISIS       0.090000
      52 CG331        0.0000     0.0000   -16.1664 CG331         1 ISIS      -0.271000
      53 HGA3        -0.5271     0.7518   -16.7778 HGA3          1 ISIS       0.090000
      54 HGA3        -0.6833    -0.2044   -15.3081 HGA3          1 ISIS       0.090000
      55 HGA3         0.8983     0.4413   -15.6864 HGA3          1 ISIS       0.090000
      56 CG321        0.6952    -2.3571     0.6114 CG321         1 ISIS       0.081000
      57 CG321        0.9695    -3.7647     0.0903 CG321         1 ISIS      -0.180000
      58 HGA2         1.4691    -1.9007    -0.0206 HGA2          1 ISIS       0.090000
      59 HGA2        -0.4026    -2.3193     0.4400 HGA2          1 ISIS       0.090000
      60 HGA2         0.3423    -4.5272     0.5769 HGA2          1 ISIS       0.090000
      61 HGA2         2.0442    -4.0382     0.1061 HGA2          1 ISIS       0.090000
      62 CG321        0.5082    -3.4972    -1.3783 CG321         1 ISIS      -0.181000
      63 CG321        0.5260    -4.5987    -2.3887 CG321         1 ISIS      -0.180000
      64 HGA2         1.1756    -2.7121    -1.8292 HGA2          1 ISIS       0.090000
      65 HGA2        -0.5292    -3.0672    -1.3836 HGA2          1 ISIS       0.090000
      66 HGA2        -0.1830    -5.3959    -2.0849 HGA2          1 ISIS       0.090000
      67 HGA2         1.5640    -5.0032    -2.4422 HGA2          1 ISIS       0.090000
      68 CG321        0.1470    -4.0754    -3.7725 CG321         1 ISIS      -0.180000
      69 CG321        0.2330    -5.1833    -4.7969 CG321         1 ISIS      -0.180000
      70 HGA2         0.8781    -3.3084    -4.1045 HGA2          1 ISIS       0.090000
      71 HGA2        -0.8695    -3.6164    -3.7888 HGA2          1 ISIS       0.090000
      72 HGA2        -0.4625    -5.9999    -4.5185 HGA2          1 ISIS       0.090000
      73 HGA2         1.2737    -5.5836    -4.7889 HGA2          1 ISIS       0.090000
      74 CG321       -0.0616    -4.6979    -6.2015 CG321         1 ISIS      -0.180000
      75 CG321        0.0537    -5.8659    -7.1564 CG321         1 ISIS      -0.180000
      76 HGA2         0.6839    -3.9450    -6.5072 HGA2          1 ISIS       0.090000
      77 HGA2        -1.0789    -4.2441    -6.2695 HGA2          1 ISIS       0.090000
      78 HGA2        -0.6437    -6.6651    -6.8449 HGA2          1 ISIS       0.090000
      79 HGA2         1.0933    -6.2598    -7.1065 HGA2          1 ISIS       0.090000
      80 CG321       -0.2438    -5.4583    -8.5898 CG321         1 ISIS      -0.180000
      81 CG321       -0.1170    -6.6858    -9.4614 CG321         1 ISIS      -0.180000
      82 HGA2         0.4768    -4.6794    -8.9286 HGA2          1 ISIS       0.090000
      83 HGA2        -1.2645    -5.0343    -8.6605 HGA2          1 ISIS       0.090000
      84 HGA2        -0.7988    -7.4730    -9.0798 HGA2          1 ISIS       0.090000
      85 HGA2         0.9264    -7.0820    -9.3920 HGA2          1 ISIS       0.090000
      86 CG321       -0.4459    -6.3644   -10.9087 CG321         1 ISIS      -0.180000
      87 CG321       -0.3355    -7.6341   -11.7410 CG321         1 ISIS      -0.180000
      88 HGA2         0.2562    -5.5900   -11.2855 HGA2          1 ISIS       0.090000
      89 HGA2        -1.4766    -5.9604   -10.9695 HGA2          1 ISIS       0.090000
      90 HGA2        -1.0105    -8.4148   -11.3292 HGA2          1 ISIS       0.090000
      91 HGA2         0.7099    -8.0314   -11.6618 HGA2          1 ISIS       0.090000
      92 CG321       -0.6797    -7.3613   -13.1908 CG321         1 ISIS      -0.148000
      93 CG321       -0.5362    -8.6359   -14.0096 CG321         1 ISIS      -0.194000
      94 HGA2         0.0070    -6.5827   -13.5949 HGA2          1 ISIS       0.090000
      95 HGA2        -1.7145    -6.9759   -13.2632 HGA2          1 ISIS       0.090000
      96 HGA2        -1.2228    -9.4146   -13.6055 HGA2          1 ISIS       0.090000
      97 HGA2         0.5123    -9.0082   -13.8769 HGA2          1 ISIS       0.090000
      98 CG321       -0.8271    -8.3971   -15.4840 CG321         1 ISIS      -0.203000
      99 CG311       -0.6814    -9.6683   -16.3437 CG311         1 ISIS      -0.083000
     100 HGA2        -0.1471    -7.6088   -15.8753 HGA2          1 ISIS       0.090000
     101 HGA2        -1.8687    -8.0183   -15.5865 HGA2          1 ISIS       0.090000
     102 HGA1        -1.3902   -10.4329   -15.9543 HGA1          1 ISIS       0.090000
     103 CG331        0.7471   -10.2396   -16.2668 CG331         1 ISIS      -0.271000
     104 HGA3         0.9517   -10.6294   -15.2438 HGA3          1 ISIS       0.090000
     105 HGA3         1.4908    -9.4531   -16.4965 HGA3          1 ISIS       0.090000
     106 HGA3         0.8690   -11.0760   -16.9904 HGA3          1 ISIS       0.090000
     107 CG331       -1.0553    -9.3608   -17.8044 CG331         1 ISIS      -0.271000
     108 HGA3        -0.3717    -8.5909   -18.2191 HGA3          1 ISIS       0.090000
     109 HGA3        -2.0950    -8.9668   -17.8543 HGA3          1 ISIS       0.090000
     110 HGA3        -0.9807   -10.2721   -18.4248 HGA3          1 ISIS       0.090000
@<TRIPOS>BOND
       1       62       65 1
       2       98      101 1
       3       75       80 1
       4       68       71 1
       5       81       84 1
       6       46       52 1
       7       57       61 1
       8       93       97 1
       9       62       63 1
      10       98       99 1
      11        2        3 1
      12        2        4 1
      13       63       68 1
      14       74       76 1
      15       29       32 1
      16       57       60 1
      17       93       96 1
      18       75       79 1
      19       75       78 1
      20       63       67 1
      21       99      103 1
      22      103      104 1
      23       80       81 1
      24       22       24 1
      25       28       31 1
      26       74       77 1
      27       11       16 1
      28       56       59 1
      29       92       95 1
      30       86       87 1
      31       23       27 1
      32       69       72 1
      33       23       26 1
      34       17       22 1
      35       46       47 1
      36       10       11 1
      37       35       38 1
      38      107      110 1
      39       80       82 1
      40       34       35 1
      41       22       25 1
      42       87       90 1
      43       47       49 1
      44       69       74 1
      45       11       15 1
      46       47       51 1
      47      107      108 1
      48       29       34 1
      49       81       86 1
      50       16       17 1
      51       52       53 1
      52      103      106 1
      53       41       45 1
      54       23       28 1
      55        5        9 1
      56       86       88 1
      57        4        5 1
      58       40       41 1
      59       16       19 1
      60       52       55 1
      61        5       10 1
      62       41       46 1
      63       17       21 1
      64      107      109 1
      65       86       89 1
      66       34       36 1
      67        4        6 1
      68       40       42 1
      69       35       40 1
      70        4        7 1
      71       69       73 1
      72       40       43 1
      73       16       18 1
      74       52       54 1
      75      103      105 1
      76       41       44 1
      77        5        8 1
      78       92       93 1
      79       56       57 1
      80       10       12 1
      81       46       48 1
      82       63       66 1
      83       99      102 1
      84       87       92 1
      85       68       69 1
      86       29       33 1
      87       22       23 1
      88       28       29 1
      89       81       85 1
      90        2        1 1
      91       74       75 1
      92       28       30 1
      93       98      100 1
      94       62       64 1
      95       99      107 1
      96       92       94 1
      97       56       58 1
      98       10       13 1
      99       17       20 1
     100       80       83 1
     101       87       91 1
     102       68       70 1
     103       34       37 1
     104       57       62 1
     105       93       98 1
     106       47       50 1
     107       11       14 1
     108       35       39 1
     109        1       56 1
@<TRIPOS>SUBSTRUCTURE
       1 ISIS            1 RESIDUE    0 **** ROOT      0
