@<TRIPOS>MOLECULE
ucer2
129 128 1 0 1
SMALL
NO_CHARGES
@<TRIPOS>CRYSIN
   10.0907     9.1794    61.9966    90.0000    90.0000    90.0000  1  1
@<TRIPOS>ATOM
       1 NH1         -0.4257     0.8598   -32.5547 NH1           1 ucer2   
       2 HN1         -1.3386     0.4301   -32.5484 HN1           1 ucer2   
       3 CLN          0.1637     1.1824   -31.3292 CLN           1 ucer2   
       4 OBL          1.2586     1.7288   -31.2453 OBL           1 ucer2   
       5 CTL2        -0.5322     0.6783   -30.0042 CTL2          1 ucer2   
       6 HAL2        -0.3666    -0.4149   -29.9302 HAL2          1 ucer2   
       7 HAL2        -1.6249     0.8378   -30.0986 HAL2          1 ucer2   
       8 CTL2        -0.0543     1.3113   -28.5871 CTL2          1 ucer2   
       9 HAL2         1.0585     1.3623   -28.5975 HAL2          1 ucer2   
      10 HAL2        -0.4188     2.3624   -28.5490 HAL2          1 ucer2   
      11 CTL2        -0.4605     0.5809   -27.2082 CTL2          1 ucer2   
      12 HAL2        -1.5505     0.3634   -27.2433 HAL2          1 ucer2   
      13 HAL2         0.0675    -0.3984   -27.2009 HAL2          1 ucer2   
      14 CTL2        -0.1716     1.2963   -25.7920 CTL2          1 ucer2   
      15 HAL2         0.8686     1.6896   -25.8167 HAL2          1 ucer2   
      16 HAL2        -0.8488     2.1766   -25.7304 HAL2          1 ucer2   
      17 CTL2        -0.3198     0.4617   -24.4211 CTL2          1 ucer2   
      18 HAL2        -1.2888    -0.0827   -24.4561 HAL2          1 ucer2   
      19 HAL2         0.4849    -0.3062   -24.4226 HAL2          1 ucer2   
      20 CTL2        -0.2659     1.2218   -23.0015 CTL2          1 ucer2   
      21 HAL2         0.6170     1.8984   -23.0089 HAL2          1 ucer2   
      22 HAL2        -1.1697     1.8680   -22.9428 HAL2          1 ucer2   
      23 CTL2        -0.1855     0.3710   -21.6364 CTL2          1 ucer2   
      24 HAL2        -0.9730    -0.4137   -21.6752 HAL2          1 ucer2   
      25 HAL2         0.7963    -0.1527   -21.6349 HAL2          1 ucer2   
      26 CTL2        -0.3398     1.1133   -20.2179 CTL2          1 ucer2   
      27 HAL2         0.3484     1.9871   -20.2105 HAL2          1 ucer2   
      28 HAL2        -1.3763     1.5142   -20.1666 HAL2          1 ucer2   
      29 CTL2        -0.0689     0.2982   -18.8617 CTL2          1 ucer2   
      30 HAL2        -0.6585    -0.6438   -18.9008 HAL2          1 ucer2   
      31 HAL2         1.0057     0.0111   -18.8549 HAL2          1 ucer2   
      32 CTL2        -0.3915     0.9880   -17.4522 CTL2          1 ucer2   
      33 HAL2         0.1027     1.9841   -17.4311 HAL2          1 ucer2   
      34 HAL2        -1.4888     1.1662   -17.4093 HAL2          1 ucer2   
      35 CTL2         0.0253     0.2362   -16.1029 CTL2          1 ucer2   
      36 HAL2        -0.3786    -0.7997   -16.1418 HAL2          1 ucer2   
      37 HAL2         1.1350     0.1544   -16.0913 HAL2          1 ucer2   
      38 CTL2        -0.4257     0.8598   -14.7037 CTL2          1 ucer2   
      39 HAL2        -0.1031     1.9242   -14.6786 HAL2          1 ucer2   
      40 HAL2        -1.5380     0.8533   -14.6755 HAL2          1 ucer2   
      41 CTL2         0.0969     0.1782   -13.3613 CTL2          1 ucer2   
      42 HAL2        -0.1514    -0.9051   -13.4047 HAL2          1 ucer2   
      43 HAL2         1.2062     0.2613   -13.3517 HAL2          1 ucer2   
      44 CTL2        -0.4454     0.7336   -11.9728 CTL2          1 ucer2   
      45 HAL2        -0.2634     1.8303   -11.9403 HAL2          1 ucer2   
      46 HAL2        -1.5473     0.5829   -11.9528 HAL2          1 ucer2   
      47 CTL2         0.1465     0.1206   -10.6326 CTL2          1 ucer2   
      48 HAL2         0.0217    -0.9845   -10.6628 HAL2          1 ucer2   
      49 HAL2         1.2393     0.3286   -10.6081 HAL2          1 ucer2   
      50 CTL2        -0.4679     0.6244    -9.2626 CTL2          1 ucer2   
      51 HAL2        -0.3916     1.7339    -9.2306 HAL2          1 ucer2   
      52 HAL2        -1.5506     0.3673    -9.2561 HAL2          1 ucer2   
      53 CTL2         0.1644     0.0706    -7.9252 CTL2          1 ucer2   
      54 HAL2         0.1309    -1.0412    -7.9427 HAL2          1 ucer2   
      55 HAL2         1.2358     0.3687    -7.8887 HAL2          1 ucer2   
      56 CTL2        -0.5046     0.5375    -6.5812 CTL2          1 ucer2   
      57 HAL2        -1.5666     0.2047    -6.5745 HAL2          1 ucer2   
      58 HAL2        -0.5050     1.6495    -6.5419 HAL2          1 ucer2   
      59 CTL2         0.1550     0.0270    -5.2551 CTL2          1 ucer2   
      60 HAL2         1.2070     0.3880    -5.2103 HAL2          1 ucer2   
      61 HAL2         0.1801    -1.0856    -5.2630 HAL2          1 ucer2   
      62 CTL2        -0.5587     0.4735    -3.9422 CTL2          1 ucer2   
      63 HAL2        -1.6036     0.0907    -3.9642 HAL2          1 ucer2   
      64 HAL2        -0.6055     1.5853    -3.9264 HAL2          1 ucer2   
      65 CTL2         0.1026     0.0018    -2.6135 CTL2          1 ucer2   
      66 HAL2         1.1384     0.4038    -2.5588 HAL2          1 ucer2   
      67 HAL2         0.1597    -1.1091    -2.6053 HAL2          1 ucer2   
      68 CTL2        -0.6405     0.4411    -1.3312 CTL2          1 ucer2   
      69 HAL2        -1.6741     0.0300    -1.3697 HAL2          1 ucer2   
      70 HAL2        -0.7090     1.5520    -1.3301 HAL2          1 ucer2   
      71 CTL3         0.0000     0.0000     0.0000 CTL3          1 ucer2   
      72 HAL3         0.0661    -1.1085     0.0612 HAL3          1 ucer2   
      73 HAL3        -0.6026     0.3538     0.8673 HAL3          1 ucer2   
      74 HAL3         1.0253     0.4177     0.1057 HAL3          1 ucer2   
      75 CTL1         0.2421     0.9060   -33.9371 CTL1          1 ucer2   
      76 HAL1         1.0152     1.7088   -33.8981 HAL1          1 ucer2   
      77 CTL2         0.9843    -0.4636   -34.1455 CTL2          1 ucer2   
      78 HAL2         1.2714    -0.9012   -33.1618 HAL2          1 ucer2   
      79 HAL2         0.3190    -1.1982   -34.6526 HAL2          1 ucer2   
      80 OHL          2.1702    -0.2841   -34.9194 OHL           1 ucer2   
      81 HOL          2.6144    -1.1367   -34.9701 HOL           1 ucer2   
      82 CTL1        -0.8018     1.3313   -35.1004 CTL1          1 ucer2   
      83 HAL1        -0.7817     2.4405   -35.1966 HAL1          1 ucer2   
      84 OHL         -2.1330     0.9168   -34.8004 OHL           1 ucer2   
      85 HOL         -2.4764     1.5728   -34.1867 HOL           1 ucer2   
      86 CEL1        -0.4437     0.7656   -36.5215 CEL1          1 ucer2   
      87 HEL1        -0.3683    -0.3297   -36.5795 HEL1          1 ucer2   
      88 CEL1        -0.3030     1.4588   -37.7046 CEL1          1 ucer2   
      89 HEL1        -0.4495     2.5504   -37.7280 HEL1          1 ucer2   
      90 CTL2        -0.0442     0.8699   -39.1093 CTL2          1 ucer2   
      91 HAL2         1.0360     0.6168   -39.1919 HAL2          1 ucer2   
      92 HAL2        -0.5944    -0.0931   -39.2024 HAL2          1 ucer2   
      93 CTL2        -0.4006     1.6661   -40.4410 CTL2          1 ucer2   
      94 HAL2        -1.4879     1.9003   -40.4264 HAL2          1 ucer2   
      95 HAL2         0.1462     2.6344   -40.4176 HAL2          1 ucer2   
      96 CTL2        -0.0765     0.9546   -41.8268 CTL2          1 ucer2   
      97 HAL2         0.9964     0.6610   -41.8199 HAL2          1 ucer2   
      98 HAL2        -0.6702     0.0144   -41.8688 HAL2          1 ucer2   
      99 CTL2        -0.3379     1.7609   -43.1718 CTL2          1 ucer2   
     100 HAL2        -1.3986     2.0966   -43.1778 HAL2          1 ucer2   
     101 HAL2         0.2992     2.6728   -43.1570 HAL2          1 ucer2   
     102 CTL2        -0.0731     1.0184   -44.5484 CTL2          1 ucer2   
     103 HAL2         0.9710     0.6338   -44.5415 HAL2          1 ucer2   
     104 HAL2        -0.7497     0.1362   -44.5878 HAL2          1 ucer2   
     105 CTL2        -0.2768     1.8418   -45.8870 CTL2          1 ucer2   
     106 HAL2        -1.3093     2.2557   -45.8947 HAL2          1 ucer2   
     107 HAL2         0.4244     2.7056   -45.8952 HAL2          1 ucer2   
     108 CTL2        -0.0659     1.0803   -47.2486 CTL2          1 ucer2   
     109 HAL2         0.9583     0.6472   -47.2614 HAL2          1 ucer2   
     110 HAL2        -0.7878     0.2358   -47.3082 HAL2          1 ucer2   
     111 CTL2        -0.2229     1.9374   -48.5535 CTL2          1 ucer2   
     112 HAL2        -1.2335     2.4035   -48.5587 HAL2          1 ucer2   
     113 HAL2         0.5249     2.7616   -48.5319 HAL2          1 ucer2   
     114 CTL2        -0.0486     1.1769   -49.9107 CTL2          1 ucer2   
     115 HAL2         0.9542     0.6929   -49.9295 HAL2          1 ucer2   
     116 HAL2        -0.8128     0.3690   -49.9670 HAL2          1 ucer2   
     117 CTL2        -0.1806     2.0611   -51.1879 CTL2          1 ucer2   
     118 HAL2        -1.1733     2.5624   -51.1645 HAL2          1 ucer2   
     119 HAL2         0.5916     2.8606   -51.1387 HAL2          1 ucer2   
     120 CTL2        -0.0369     1.3124   -52.5483 CTL2          1 ucer2   
     121 HAL2         0.9518     0.8057   -52.5985 HAL2          1 ucer2   
     122 HAL2        -0.8210     0.5283   -52.6333 HAL2          1 ucer2   
     123 CTL2        -0.1518     2.2190   -53.7959 CTL2          1 ucer2   
     124 HAL2        -1.1419     2.7278   -53.7528 HAL2          1 ucer2   
     125 HAL2         0.6582     2.9812   -53.7311 HAL2          1 ucer2   
     126 CTL3        -0.0302     1.4788   -55.2298 CTL3          1 ucer2   
     127 HAL3        -0.1091     2.1571   -56.1293 HAL3          1 ucer2   
     128 HAL3         0.9516     0.9461   -55.3807 HAL3          1 ucer2   
     129 HAL3        -0.8304     0.7049   -55.4073 HAL3          1 ucer2   
@<TRIPOS>BOND
       1       41       43 1
       2       47       49 1
       3       44       47 1
       4       59       62 1
       5       78       77 1
       6       96       97 1
       7       82       84 1
       8        5        6 1
       9      120      121 1
      10        8       10 1
      11       84       85 1
      12       23       25 1
      13       11       13 1
      14       20       22 1
      15       65       62 1
      16       75        1 1
      17      102      104 1
      18       32       33 1
      19       87       86 1
      20       35       36 1
      21       82       83 1
      22       38       39 1
      23       26       29 1
      24       17       20 1
      25       50       51 1
      26       32       35 1
      27       53       50 1
      28       44       46 1
      29       23       26 1
      30       20       23 1
      31      108      109 1
      32      120      123 1
      33       99      101 1
      34       44       45 1
      35        3        5 1
      36      105      108 1
      37        5        7 1
      38        5        8 1
      39        2        1 1
      40      102      103 1
      41       11       14 1
      42       59       60 1
      43       77       80 1
      44       14       17 1
      45       65       66 1
      46       55       53 1
      47      123      124 1
      48      114      117 1
      49      111      112 1
      50       35       37 1
      51      114      115 1
      52       99      102 1
      53       35       38 1
      54       26       28 1
      55        8        9 1
      56       56       58 1
      57       88       90 1
      58       47       50 1
      59       32       34 1
      60       38       41 1
      61      126      127 1
      62       54       53 1
      63       68       69 1
      64       90       91 1
      65       77       79 1
      66       96       99 1
      67      102      105 1
      68       29       30 1
      69       68       71 1
      70       90       93 1
      71       71       72 1
      72       93       94 1
      73      126      129 1
      74       82       86 1
      75      108      111 1
      76       80       81 1
      77       20       21 1
      78       41       44 1
      79       17       18 1
      80       59       61 1
      81       14       16 1
      82      117      118 1
      83       71       74 1
      84       93       96 1
      85       88       86 1
      86       77       75 1
      87      111      113 1
      88       14       15 1
      89      117      119 1
      90       26       27 1
      91      117      120 1
      92      120      122 1
      93       63       62 1
      94       71       73 1
      95        3        1 1
      96       93       95 1
      97      108      110 1
      98       75       76 1
      99       65       67 1
     100      123      125 1
     101       41       42 1
     102      114      116 1
     103       56       53 1
     104        8       11 1
     105       17       19 1
     106       50       52 1
     107       62       64 1
     108       96       98 1
     109       99      100 1
     110       23       24 1
     111        3        4 1
     112      105      106 1
     113       29       31 1
     114      126      128 1
     115       90       92 1
     116       68       70 1
     117       88       89 1
     118       56       57 1
     119       38       40 1
     120      105      107 1
     121       29       32 1
     122       47       48 1
     123       11       12 1
     124       65       68 1
     125      123      126 1
     126      111      114 1
     127       82       75 1
     128       56       59 1
@<TRIPOS>SUBSTRUCTURE
       1 ucer2           1 RESIDUE    0 **** ROOT      0
