@<TRIPOS>MOLECULE
ucer2
129 128 1 0 1
SMALL
USER_CHARGES
@<TRIPOS>CRYSIN
    9.0139     9.4347    62.0265    90.0000    90.0000    90.0000  1  1
@<TRIPOS>ATOM
       1 NH1         -0.6295    -0.1913    -1.3879 NH1           1 ucer2     -0.530000
       2 HN1         -1.6297    -0.0601    -1.4121 HN1           1 ucer2      0.260000
       3 CLN          0.0482    -0.3477    -2.6000 CLN           1 ucer2      0.580000
       4 OBL          1.2585    -0.5369    -2.6615 OBL           1 ucer2     -0.530000
       5 CTL2        -0.7482    -0.1102    -3.9430 CTL2          1 ucer2     -0.260000
       6 HAL2        -0.9217     0.9795    -4.0449 HAL2          1 ucer2      0.130000
       7 HAL2        -1.7420    -0.5924    -3.8521 HAL2          1 ucer2      0.130000
       8 CTL2        -0.0794    -0.6005    -5.3392 CTL2          1 ucer2     -0.180000
       9 HAL2         0.9960    -0.3103    -5.3196 HAL2          1 ucer2      0.090000
      10 HAL2        -0.1065    -1.7133    -5.3519 HAL2          1 ucer2      0.090000
      11 CTL2        -0.6677    -0.0607    -6.7399 CTL2          1 ucer2     -0.180000
      12 HAL2        -1.7728    -0.1844    -6.7185 HAL2          1 ucer2      0.090000
      13 HAL2        -0.4625     1.0324    -6.7697 HAL2          1 ucer2      0.090000
      14 CTL2        -0.1540    -0.6870    -8.1345 CTL2          1 ucer2     -0.180000
      15 HAL2         0.9560    -0.7444    -8.0918 HAL2          1 ucer2      0.090000
      16 HAL2        -0.5306    -1.7327    -8.1773 HAL2          1 ucer2      0.090000
      17 CTL2        -0.5285     0.0308    -9.5282 CTL2          1 ucer2     -0.180000
      18 HAL2        -1.6175     0.2553    -9.5147 HAL2          1 ucer2      0.090000
      19 HAL2         0.0046     1.0070    -9.5415 HAL2          1 ucer2      0.090000
      20 CTL2        -0.2249    -0.7096   -10.9266 CTL2          1 ucer2     -0.180000
      21 HAL2         0.8217    -1.0851   -10.8948 HAL2          1 ucer2      0.090000
      22 HAL2        -0.8885    -1.6013   -10.9745 HAL2          1 ucer2      0.090000
      23 CTL2        -0.3865     0.0934   -12.3133 CTL2          1 ucer2     -0.180000
      24 HAL2        -1.3758     0.6019   -12.3010 HAL2          1 ucer2      0.090000
      25 HAL2         0.3895     0.8907   -12.3217 HAL2          1 ucer2      0.090000
      26 CTL2        -0.2867    -0.6935   -13.7126 CTL2          1 ucer2     -0.180000
      27 HAL2         0.6345    -1.3163   -13.6917 HAL2          1 ucer2      0.090000
      28 HAL2        -1.1514    -1.3918   -13.7605 HAL2          1 ucer2      0.090000
      29 CTL2        -0.2562     0.1337   -15.0880 CTL2          1 ucer2     -0.180000
      30 HAL2        -1.1048     0.8523   -15.0783 HAL2          1 ucer2      0.090000
      31 HAL2         0.6802     0.7339   -15.0949 HAL2          1 ucer2      0.090000
      32 CTL2        -0.3329    -0.6542   -16.4809 CTL2          1 ucer2     -0.180000
      33 HAL2         0.4410    -1.4529   -16.4719 HAL2          1 ucer2      0.090000
      34 HAL2        -1.3232    -1.1587   -16.5268 HAL2          1 ucer2      0.090000
      35 CTL2        -0.1443     0.1572   -17.8468 CTL2          1 ucer2     -0.180000
      36 HAL2        -0.8444     1.0217   -17.8384 HAL2          1 ucer2      0.090000
      37 HAL2         0.8881     0.5725   -17.8526 HAL2          1 ucer2      0.090000
      38 CTL2        -0.3634    -0.6064   -19.2320 CTL2          1 ucer2     -0.180000
      39 HAL2         0.2678    -1.5225   -19.2263 HAL2          1 ucer2      0.090000
      40 HAL2        -1.4245    -0.9394   -19.2683 HAL2          1 ucer2      0.090000
      41 CTL2        -0.0528     0.1704   -20.5883 CTL2          1 ucer2     -0.180000
      42 HAL2        -0.6192     1.1275   -20.5757 HAL2          1 ucer2      0.090000
      43 HAL2         1.0293     0.4287   -20.5878 HAL2          1 ucer2      0.090000
      44 CTL2        -0.3798    -0.5557   -21.9653 CTL2          1 ucer2     -0.180000
      45 HAL2         0.1274    -1.5455   -21.9673 HAL2          1 ucer2      0.090000
      46 HAL2        -1.4750    -0.7480   -21.9973 HAL2          1 ucer2      0.090000
      47 CTL2         0.0176     0.1770   -23.3172 CTL2          1 ucer2     -0.180000
      48 HAL2        -0.4376     1.1921   -23.3174 HAL2          1 ucer2      0.090000
      49 HAL2         1.1222     0.3108   -23.3284 HAL2          1 ucer2      0.090000
      50 CTL2        -0.3940    -0.5216   -24.6776 CTL2          1 ucer2     -0.180000
      51 HAL2         0.0164    -1.5558   -24.6795 HAL2          1 ucer2      0.090000
      52 HAL2        -1.5035    -0.6064   -24.6987 HAL2          1 ucer2      0.090000
      53 CTL2         0.0599     0.1670   -26.0248 CTL2          1 ucer2     -0.180000
      54 HAL2        -0.3103     1.2161   -26.0372 HAL2          1 ucer2      0.090000
      55 HAL2         1.1716     0.2083   -26.0456 HAL2          1 ucer2      0.090000
      56 CTL2        -0.4154    -0.5123   -27.3606 CTL2          1 ucer2     -0.180000
      57 HAL2        -1.5281    -0.5187   -27.3837 HAL2          1 ucer2      0.090000
      58 HAL2        -0.0772    -1.5724   -27.3702 HAL2          1 ucer2      0.090000
      59 CTL2         0.0775     0.1436   -28.6951 CTL2          1 ucer2     -0.180000
      60 HAL2         1.1900     0.1189   -28.7227 HAL2          1 ucer2      0.090000
      61 HAL2        -0.2370     1.2110   -28.7167 HAL2          1 ucer2      0.090000
      62 CTL2        -0.4470    -0.5292   -30.0006 CTL2          1 ucer2     -0.180000
      63 HAL2        -1.5590    -0.4821   -29.9963 HAL2          1 ucer2      0.090000
      64 HAL2        -0.1534    -1.6026   -29.9871 HAL2          1 ucer2      0.090000
      65 CTL2         0.0593     0.0902   -31.3368 CTL2          1 ucer2     -0.180000
      66 HAL2         1.1690     0.0213   -31.3733 HAL2          1 ucer2      0.090000
      67 HAL2        -0.2239     1.1654   -31.3742 HAL2          1 ucer2      0.090000
      68 CTL2        -0.4959    -0.5840   -32.6121 CTL2          1 ucer2     -0.180000
      69 HAL2        -1.6060    -0.5061   -32.5920 HAL2          1 ucer2      0.090000
      70 HAL2        -0.2234    -1.6627   -32.5841 HAL2          1 ucer2      0.090000
      71 CTL3         0.0000    -0.0000   -33.9500 CTL3          1 ucer2     -0.300000
      72 HAL3        -0.2731     1.0743   -34.0403 HAL3          1 ucer2      0.100000
      73 HAL3        -0.4535    -0.5404   -34.8118 HAL3          1 ucer2      0.100000
      74 HAL3         1.1052    -0.0883   -34.0372 HAL3          1 ucer2      0.100000
      75 CTL1         0.0000     0.0000     0.0000 CTL1          1 ucer2      0.030000
      76 HAL1         0.9809    -0.5302    -0.0120 HAL1          1 ucer2      0.120000
      77 CTL2         0.2875     1.5349     0.1771 CTL2          1 ucer2      0.060000
      78 HAL2         0.4426     2.0161    -0.8158 HAL2          1 ucer2      0.105000
      79 HAL2        -0.5771     2.0439     0.6597 HAL2          1 ucer2      0.105000
      80 OHL          1.4602     1.7429     0.9639 OHL           1 ucer2     -0.560000
      81 HOL          1.6233     2.6911     0.9950 HOL           1 ucer2      0.340000
      82 CTL1        -0.8825    -0.6956     1.1668 CTL1          1 ucer2      0.150000
      83 HAL1        -0.5276    -1.7436     1.2928 HAL1          1 ucer2      0.090000
      84 OHL         -2.2721    -0.7129     0.8463 OHL           1 ucer2     -0.560000
      85 HOL         -2.3906    -1.4563     0.2480 HOL           1 ucer2      0.340000
      86 CEL1        -0.7345    -0.0149     2.5748 CEL1          1 ucer2     -0.090000
      87 HEL1        -0.9965     1.0525     2.6041 HEL1          1 ucer2      0.090000
      88 CEL1        -0.4075    -0.6047     3.7770 CEL1          1 ucer2     -0.090000
      89 HEL1        -0.2155    -1.6883     3.8285 HEL1          1 ucer2      0.090000
      90 CTL2        -0.3609     0.0675     5.1673 CTL2          1 ucer2     -0.180000
      91 HAL2         0.5899     0.6392     5.2508 HAL2          1 ucer2      0.090000
      92 HAL2        -1.1791     0.8193     5.2307 HAL2          1 ucer2      0.090000
      93 CTL2        -0.4782    -0.7682     6.5171 CTL2          1 ucer2     -0.180000
      94 HAL2        -1.4425    -1.3223     6.5011 HAL2          1 ucer2      0.090000
      95 HAL2         0.3374    -1.5244     6.5235 HAL2          1 ucer2      0.090000
      96 CTL2        -0.4064     0.0402     7.8858 CTL2          1 ucer2     -0.180000
      97 HAL2         0.5265     0.6461     7.8787 HAL2          1 ucer2      0.090000
      98 HAL2        -1.2583     0.7559     7.8985 HAL2          1 ucer2      0.090000
      99 CTL2        -0.4304    -0.7758     9.2499 CTL2          1 ucer2     -0.180000
     100 HAL2        -1.3388    -1.4181     9.2573 HAL2          1 ucer2      0.090000
     101 HAL2         0.4539    -1.4508     9.2640 HAL2          1 ucer2      0.090000
     102 CTL2        -0.4244     0.0438    10.6081 CTL2          1 ucer2     -0.180000
     103 HAL2         0.4534     0.7276    10.5984 HAL2          1 ucer2      0.090000
     104 HAL2        -1.3376     0.6789    10.6191 HAL2          1 ucer2      0.090000
     105 CTL2        -0.3881    -0.7712    11.9667 CTL2          1 ucer2     -0.180000
     106 HAL2        -1.2458    -1.4793    11.9781 HAL2          1 ucer2      0.090000
     107 HAL2         0.5423    -1.3802    12.0030 HAL2          1 ucer2      0.090000
     108 CTL2        -0.4389     0.0499    13.3089 CTL2          1 ucer2     -0.180000
     109 HAL2         0.4048     0.7742    13.3175 HAL2          1 ucer2      0.090000
     110 HAL2        -1.3842     0.6358    13.3408 HAL2          1 ucer2      0.090000
     111 CTL2        -0.3474    -0.7838    14.6351 CTL2          1 ucer2     -0.180000
     112 HAL2        -1.1685    -1.5351    14.6455 HAL2          1 ucer2      0.090000
     113 HAL2         0.6158    -1.3417    14.6408 HAL2          1 ucer2      0.090000
     114 CTL2        -0.4328     0.0250    15.9727 CTL2          1 ucer2     -0.180000
     115 HAL2         0.3750     0.7915    15.9857 HAL2          1 ucer2      0.090000
     116 HAL2        -1.4072     0.5632    16.0020 HAL2          1 ucer2      0.090000
     117 CTL2        -0.3088    -0.8275    17.2721 CTL2          1 ucer2     -0.180000
     118 HAL2        -1.1017    -1.6074    17.2549 HAL2          1 ucer2      0.090000
     119 HAL2         0.6706    -1.3550    17.2497 HAL2          1 ucer2      0.090000
     120 CTL2        -0.4198    -0.0392    18.6130 CTL2          1 ucer2     -0.180000
     121 HAL2         0.3673     0.7454    18.6567 HAL2          1 ucer2      0.090000
     122 HAL2        -1.4063     0.4709    18.6714 HAL2          1 ucer2      0.090000
     123 CTL2        -0.2722    -0.9084    19.8835 CTL2          1 ucer2     -0.180000
     124 HAL2        -1.0601    -1.6953    19.8470 HAL2          1 ucer2      0.090000
     125 HAL2         0.7320    -1.3893    19.8449 HAL2          1 ucer2      0.090000
     126 CTL3        -0.4029    -0.1332    21.2980 CTL3          1 ucer2     -0.300000
     127 HAL3        -0.2851    -0.7823    22.2147 HAL3          1 ucer2      0.100000
     128 HAL3         0.3683     0.6763    21.4416 HAL3          1 ucer2      0.100000
     129 HAL3        -1.4029     0.3644    21.4490 HAL3          1 ucer2      0.100000
@<TRIPOS>BOND
       1       71       74 1
       2      108      111 1
       3      108      109 1
       4       96       97 1
       5       14       15 1
       6       29       30 1
       7       71       72 1
       8        1        2 1
       9       44       46 1
      10      123      125 1
      11       86       87 1
      12      117      119 1
      13       38       40 1
      14       50       53 1
      15       62       64 1
      16      114      116 1
      17       35       37 1
      18       90       93 1
      19       47       50 1
      20      126      129 1
      21       99      100 1
      22       82       84 1
      23       99      101 1
      24       17       14 1
      25       88       90 1
      26      117      120 1
      27       38       41 1
      28      114      117 1
      29       35       38 1
      30       17       18 1
      31      111      114 1
      32       50       52 1
      33       65       68 1
      34       59       60 1
      35       55       53 1
      36      108      110 1
      37      111      113 1
      38      123      126 1
      39       44       47 1
      40       68       71 1
      41       90       92 1
      42       47       49 1
      43      126      128 1
      44       93       94 1
      45       53       54 1
      46       33       32 1
      47       23       26 1
      48        8       11 1
      49       96       99 1
      50       77       79 1
      51        3        1 1
      52        5        6 1
      53       20       21 1
      54      105      106 1
      55        8        9 1
      56       68       70 1
      57       23       24 1
      58      102      105 1
      59       80       81 1
      60       56       58 1
      61       56       53 1
      62       88       89 1
      63      120      121 1
      64       41       42 1
      65       84       85 1
      66       75        1 1
      67       82       75 1
      68      102      103 1
      69      105      108 1
      70       93       95 1
      71       77       80 1
      72      120      123 1
      73       41       44 1
      74       17       20 1
      75       34       32 1
      76       82       83 1
      77      114      115 1
      78       35       36 1
      79      102      104 1
      80       59       61 1
      81       26       27 1
      82       11       12 1
      83       59       62 1
      84       20       22 1
      85      126      127 1
      86        5        7 1
      87       90       91 1
      88       47       48 1
      89      105      107 1
      90       99      102 1
      91       26       28 1
      92       11       13 1
      93       93       96 1
      94       50       51 1
      95       26       29 1
      96       11       14 1
      97        3        4 1
      98       29       31 1
      99       14       16 1
     100       17       19 1
     101       86       88 1
     102       65       66 1
     103       62       63 1
     104        8       10 1
     105       23       25 1
     106      117      118 1
     107       38       39 1
     108      120      122 1
     109       41       43 1
     110       56       57 1
     111       77       75 1
     112       82       86 1
     113        3        5 1
     114       71       73 1
     115       77       78 1
     116       75       76 1
     117       65       67 1
     118       62       65 1
     119      111      112 1
     120       68       69 1
     121        5        8 1
     122       20       23 1
     123       32       29 1
     124       96       98 1
     125       56       59 1
     126       35       32 1
     127      123      124 1
     128       44       45 1
@<TRIPOS>SUBSTRUCTURE
       1 ucer2           1 RESIDUE    0 **** ROOT      0
