@<TRIPOS>MOLECULE
oh16
51 50 1 0 1
SMALL
NO_CHARGES
@<TRIPOS>CRYSIN
    8.0873     8.4288    26.6897    90.0000    90.0000    90.0000  1  1
@<TRIPOS>ATOM
       1 CG321       -0.2498    -0.3930    -8.8456 CG321         1 oh16    
       2 CG321        0.2448     0.3813   -10.0564 CG321         1 oh16    
       3 HGA2         0.1551    -1.4312    -8.8768 HGA2          1 oh16    
       4 HGA2        -1.3620    -0.4625    -8.8770 HGA2          1 oh16    
       5 HGA2         1.3569     0.4508   -10.0250 HGA2          1 oh16    
       6 HGA2        -0.1602     1.4195   -10.0252 HGA2          1 oh16    
       7 CG321       -0.1857    -0.2930   -11.3502 CG321         1 oh16    
       8 CG321        0.3091     0.4816   -12.5623 CG321         1 oh16    
       9 HGA2        -1.2976    -0.3621   -11.3807 HGA2          1 oh16    
      10 HGA2         0.2195    -1.3308   -11.3805 HGA2          1 oh16    
      11 HGA2         1.4217     0.5517   -12.5279 HGA2          1 oh16    
      12 HGA2        -0.0954     1.5204   -12.5281 HGA2          1 oh16    
      13 CG321       -0.1191    -0.1893   -13.8588 CG321         1 oh16    
      14 CG321        0.3742     0.5831   -15.0752 CG321         1 oh16    
      15 HGA2        -1.2316    -0.2592   -13.8874 HGA2          1 oh16    
      16 HGA2         0.2855    -1.2280   -13.8872 HGA2          1 oh16    
      17 HGA2         1.4866     0.6529   -15.0393 HGA2          1 oh16    
      18 HGA2        -0.0305     1.6216   -15.0395 HGA2          1 oh16    
      19 CG321       -0.0544    -0.0884   -16.3747 CG321         1 oh16    
      20 CG321        0.4297     0.6714   -17.6061 CG321         1 oh16    
      21 HGA2        -1.1669    -0.1602   -16.3964 HGA2          1 oh16    
      22 HGA2         0.3487    -1.1276   -16.3976 HGA2          1 oh16    
      23 HGA2         1.5421     0.7429   -17.5700 HGA2          1 oh16    
      24 HGA2         0.0278     1.7105   -17.5693 HGA2          1 oh16    
      25 CG331       -0.0000     0.0000   -18.9065 CG331         1 oh16    
      26 HGA3        -1.1092    -0.0630   -18.9566 HGA3          1 oh16    
      27 HGA3         0.4092    -1.0333   -18.9572 HGA3          1 oh16    
      28 HGA3         0.3647     0.5710   -19.7852 HGA3          1 oh16    
      29 CG321        0.1803     0.2809    -7.5527 CG321         1 oh16    
      30 CG321       -0.3144    -0.4937    -6.3405 CG321         1 oh16    
      31 HGA2        -0.2244     1.3194    -7.5229 HGA2          1 oh16    
      32 HGA2         1.2927     0.3506    -7.5227 HGA2          1 oh16    
      33 HGA2         0.0904    -1.5321    -6.3739 HGA2          1 oh16    
      34 HGA2        -1.4267    -0.5633    -6.3741 HGA2          1 oh16    
      35 CG321        0.1142     0.1778    -5.0446 CG321         1 oh16    
      36 CG321       -0.3791    -0.5945    -3.8282 CG321         1 oh16    
      37 HGA2        -0.2907     1.2161    -5.0170 HGA2          1 oh16    
      38 HGA2         1.2264     0.2474    -5.0168 HGA2          1 oh16    
      39 HGA2         0.0254    -1.6333    -3.8625 HGA2          1 oh16    
      40 HGA2        -1.4917    -0.6646    -3.8627 HGA2          1 oh16    
      41 CG321        0.0517     0.0805    -2.5314 CG321         1 oh16    
      42 CG321       -0.4340    -0.6799    -1.2967 CG321         1 oh16    
      43 HGA2        -0.3532     1.1187    -2.5132 HGA2          1 oh16    
      44 HGA2         1.1639     0.1500    -2.5130 HGA2          1 oh16    
      45 HGA2        -0.0315    -1.7183    -1.3246 HGA2          1 oh16    
      46 HGA2        -1.5453    -0.7517    -1.3248 HGA2          1 oh16    
      47 CG321        0.0000     0.0000     0.0000 CG321         1 oh16    
      48 OG311       -0.4817    -0.7541     1.1053 OG311         1 oh16    
      49 HGA2        -0.4157     1.0325     0.0332 HGA2          1 oh16    
      50 HGA2         1.1115     0.0573     0.0334 HGA2          1 oh16    
      51 HGP1        -0.1943    -0.3040     1.9045 HGP1          1 oh16    
@<TRIPOS>BOND
       1       24       20 1
       2        9        7 1
       3       39       36 1
       4       11        8 1
       5       30       29 1
       6       18       14 1
       7       38       35 1
       8       37       35 1
       9       19       14 1
      10       40       36 1
      11        7        2 1
      12       34       30 1
      13       16       13 1
      14       15       13 1
      15       44       41 1
      16       49       47 1
      17       26       25 1
      18        5        2 1
      19        6        2 1
      20       33       30 1
      21       10        7 1
      22       28       25 1
      23        3        1 1
      24       25       20 1
      25       21       19 1
      26       32       29 1
      27       42       41 1
      28       47       42 1
      29       31       29 1
      30       22       19 1
      31       23       20 1
      32       14       13 1
      33        2        1 1
      34       17       14 1
      35       48       47 1
      36       29        1 1
      37       27       25 1
      38       13        8 1
      39       35       30 1
      40       50       47 1
      41       20       19 1
      42       51       48 1
      43       45       42 1
      44       41       36 1
      45       12        8 1
      46        8        7 1
      47       43       41 1
      48       36       35 1
      49       46       42 1
      50        4        1 1
@<TRIPOS>SUBSTRUCTURE
       1 oh16            1 RESIDUE    0 **** ROOT      0
