@<TRIPOS>MOLECULE
oh16
51 50 1 0 1
SMALL
NO_CHARGES
@<TRIPOS>CRYSIN
    8.0874     8.4288    26.6897    90.0000    90.0000    90.0000  1  1
@<TRIPOS>ATOM
       1             -0.2498    -0.3930    -8.8456               1 oh16    
       2              0.2448     0.3813   -10.0564               1 oh16    
       3              0.1551    -1.4312    -8.8768               1 oh16    
       4             -1.3620    -0.4625    -8.8770               1 oh16    
       5              1.3569     0.4508   -10.0250               1 oh16    
       6             -0.1602     1.4195   -10.0252               1 oh16    
       7             -0.1857    -0.2930   -11.3502               1 oh16    
       8              0.3091     0.4816   -12.5623               1 oh16    
       9             -1.2976    -0.3621   -11.3807               1 oh16    
      10 10           0.2195    -1.3308   -11.3805 10            1 oh16    
      11 11           1.4217     0.5517   -12.5279 11            1 oh16    
      12 12          -0.0954     1.5204   -12.5281 12            1 oh16    
      13 13          -0.1191    -0.1893   -13.8588 13            1 oh16    
      14 14           0.3742     0.5831   -15.0752 14            1 oh16    
      15 15          -1.2316    -0.2592   -13.8874 15            1 oh16    
      16 16           0.2855    -1.2280   -13.8872 16            1 oh16    
      17 17           1.4866     0.6529   -15.0393 17            1 oh16    
      18 18          -0.0305     1.6216   -15.0395 18            1 oh16    
      19 19          -0.0544    -0.0884   -16.3747 19            1 oh16    
      20 20           0.4297     0.6714   -17.6061 20            1 oh16    
      21 21          -1.1669    -0.1602   -16.3964 21            1 oh16    
      22 22           0.3487    -1.1276   -16.3976 22            1 oh16    
      23 23           1.5421     0.7429   -17.5700 23            1 oh16    
      24 24           0.0278     1.7105   -17.5693 24            1 oh16    
      25 25           0.0000     0.0000   -18.9065 25            1 oh16    
      26 26          -1.1092    -0.0630   -18.9566 26            1 oh16    
      27 27           0.4092    -1.0333   -18.9572 27            1 oh16    
      28 28           0.3647     0.5710   -19.7852 28            1 oh16    
      29 29           0.1803     0.2809    -7.5527 29            1 oh16    
      30 30          -0.3144    -0.4937    -6.3405 30            1 oh16    
      31 31          -0.2244     1.3194    -7.5229 31            1 oh16    
      32 32           1.2927     0.3506    -7.5227 32            1 oh16    
      33 33           0.0904    -1.5321    -6.3739 33            1 oh16    
      34 34          -1.4267    -0.5633    -6.3741 34            1 oh16    
      35 35           0.1142     0.1778    -5.0446 35            1 oh16    
      36 36          -0.3791    -0.5945    -3.8282 36            1 oh16    
      37 37          -0.2907     1.2161    -5.0170 37            1 oh16    
      38 38           1.2264     0.2474    -5.0168 38            1 oh16    
      39 39           0.0254    -1.6333    -3.8625 39            1 oh16    
      40 40          -1.4917    -0.6646    -3.8627 40            1 oh16    
      41 41           0.0517     0.0805    -2.5314 41            1 oh16    
      42 42          -0.4340    -0.6799    -1.2967 42            1 oh16    
      43 43          -0.3532     1.1187    -2.5132 43            1 oh16    
      44 44           1.1639     0.1500    -2.5130 44            1 oh16    
      45 45          -0.0315    -1.7183    -1.3246 45            1 oh16    
      46 46          -1.5453    -0.7517    -1.3248 46            1 oh16    
      47 47           0.0000     0.0000     0.0000 47            1 oh16    
      48 48          -0.4817    -0.7541     1.1053 48            1 oh16    
      49 49          -0.4157     1.0325     0.0332 49            1 oh16    
      50 50           1.1115     0.0573     0.0334 50            1 oh16    
      51 51          -0.1943    -0.3040     1.9045 51            1 oh16    
@<TRIPOS>BOND
       1       29       32 1
       2        2        5 1
       3       23       20 1
       4       30       34 1
       5        1        4 1
       6        8       12 1
       7       36       41 1
       8        2        1 1
       9       41       42 1
      10       42       46 1
      11       13       14 1
      12        7        9 1
      13       42       47 1
      14        2        7 1
      15        3        1 1
      16       22       19 1
      17       13       16 1
      18       30       35 1
      19       29       31 1
      20       49       47 1
      21       25       20 1
      22       30       33 1
      23       14       18 1
      24       14       19 1
      25        7       10 1
      26        8       11 1
      27       48       47 1
      28        2        6 1
      29       41       43 1
      30       21       19 1
      31       42       45 1
      32       35       37 1
      33       35       38 1
      34       26       25 1
      35       50       47 1
      36       36       40 1
      37       51       48 1
      38       14       17 1
      39       13       15 1
      40       28       25 1
      41        1       29 1
      42       36       39 1
      43       24       20 1
      44        8       13 1
      45       41       44 1
      46       35       36 1
      47        7        8 1
      48       27       25 1
      49       29       30 1
      50       20       19 1
@<TRIPOS>SUBSTRUCTURE
       1 oh16            1 RESIDUE    0 **** ROOT      0
