@<TRIPOS>MOLECULE
oh16
51 50 1 0 1
SMALL
NO_CHARGES
@<TRIPOS>CRYSIN
    8.0873     8.4288    26.6897    90.0000    90.0000    90.0000  1  1
@<TRIPOS>ATOM
       1 CG321       -0.2498    -0.3930    10.0609 CG321         1 oh16    
       2 CG321        0.2448     0.3813     8.8501 CG321         1 oh16    
       3 HGA2         0.1551    -1.4312    10.0297 HGA2          1 oh16    
       4 HGA2        -1.3620    -0.4625    10.0295 HGA2          1 oh16    
       5 HGA2         1.3569     0.4508     8.8815 HGA2          1 oh16    
       6 HGA2        -0.1602     1.4195     8.8813 HGA2          1 oh16    
       7 CG321       -0.1857    -0.2930     7.5563 CG321         1 oh16    
       8 CG321        0.3091     0.4816     6.3442 CG321         1 oh16    
       9 HGA2        -1.2976    -0.3621     7.5258 HGA2          1 oh16    
      10 HGA2         0.2195    -1.3308     7.5260 HGA2          1 oh16    
      11 HGA2         1.4217     0.5517     6.3786 HGA2          1 oh16    
      12 HGA2        -0.0954     1.5204     6.3784 HGA2          1 oh16    
      13 CG321       -0.1191    -0.1893     5.0477 CG321         1 oh16    
      14 CG321        0.3742     0.5831     3.8313 CG321         1 oh16    
      15 HGA2        -1.2316    -0.2592     5.0191 HGA2          1 oh16    
      16 HGA2         0.2855    -1.2280     5.0193 HGA2          1 oh16    
      17 HGA2         1.4866     0.6529     3.8671 HGA2          1 oh16    
      18 HGA2        -0.0305     1.6216     3.8669 HGA2          1 oh16    
      19 CG321       -0.0544    -0.0884     2.5318 CG321         1 oh16    
      20 CG321        0.4297     0.6714     1.3004 CG321         1 oh16    
      21 HGA2        -1.1669    -0.1602     2.5101 HGA2          1 oh16    
      22 HGA2         0.3487    -1.1276     2.5089 HGA2          1 oh16    
      23 HGA2         1.5421     0.7429     1.3365 HGA2          1 oh16    
      24 HGA2         0.0278     1.7105     1.3372 HGA2          1 oh16    
      25 CG331        0.0000     0.0000     0.0000 CG331         1 oh16    
      26 HGA3        -1.1092    -0.0630    -0.0501 HGA3          1 oh16    
      27 HGA3         0.4092    -1.0333    -0.0507 HGA3          1 oh16    
      28 HGA3         0.3647     0.5710    -0.8788 HGA3          1 oh16    
      29 CG321        0.1803     0.2809    11.3538 CG321         1 oh16    
      30 CG321       -0.3144    -0.4937    12.5660 CG321         1 oh16    
      31 HGA2        -0.2244     1.3194    11.3836 HGA2          1 oh16    
      32 HGA2         1.2927     0.3506    11.3838 HGA2          1 oh16    
      33 HGA2         0.0904    -1.5321    12.5325 HGA2          1 oh16    
      34 HGA2        -1.4267    -0.5633    12.5324 HGA2          1 oh16    
      35 CG321        0.1142     0.1778    13.8619 CG321         1 oh16    
      36 CG321       -0.3791    -0.5945    15.0783 CG321         1 oh16    
      37 HGA2        -0.2907     1.2161    13.8895 HGA2          1 oh16    
      38 HGA2         1.2264     0.2474    13.8897 HGA2          1 oh16    
      39 HGA2         0.0254    -1.6333    15.0440 HGA2          1 oh16    
      40 HGA2        -1.4917    -0.6646    15.0438 HGA2          1 oh16    
      41 CG321        0.0517     0.0805    16.3751 CG321         1 oh16    
      42 CG321       -0.4340    -0.6799    17.6098 CG321         1 oh16    
      43 HGA2        -0.3532     1.1187    16.3933 HGA2          1 oh16    
      44 HGA2         1.1639     0.1500    16.3934 HGA2          1 oh16    
      45 HGA2        -0.0315    -1.7183    17.5819 HGA2          1 oh16    
      46 HGA2        -1.5453    -0.7517    17.5817 HGA2          1 oh16    
      47 CG321        0.0000    -0.0000    18.9065 CG321         1 oh16    
      48 OG311       -0.4817    -0.7541    20.0117 OG311         1 oh16    
      49 HGA2        -0.4157     1.0325    18.9397 HGA2          1 oh16    
      50 HGA2         1.1115     0.0573    18.9399 HGA2          1 oh16    
      51 HGP1        -0.1943    -0.3040    20.8109 HGP1          1 oh16    
@<TRIPOS>BOND
       1       35       30 1
       2       19       14 1
       3       30       29 1
       4        2        1 1
       5       26       25 1
       6       22       19 1
       7        3        1 1
       8       10        7 1
       9        8        7 1
      10       20       19 1
      11        9        7 1
      12       23       20 1
      13       47       42 1
      14       17       14 1
      15        5        2 1
      16       39       36 1
      17       12        8 1
      18       11        8 1
      19       25       20 1
      20       38       35 1
      21       13        8 1
      22       18       14 1
      23       27       25 1
      24       50       47 1
      25        7        2 1
      26       51       48 1
      27       14       13 1
      28       41       36 1
      29       33       30 1
      30       40       36 1
      31       29        1 1
      32       31       29 1
      33       21       19 1
      34       48       47 1
      35       46       42 1
      36       28       25 1
      37       32       29 1
      38       24       20 1
      39       34       30 1
      40       49       47 1
      41       44       41 1
      42       36       35 1
      43       15       13 1
      44       43       41 1
      45       37       35 1
      46       16       13 1
      47        6        2 1
      48       42       41 1
      49        4        1 1
      50       45       42 1
@<TRIPOS>SUBSTRUCTURE
       1 oh16            1 RESIDUE    0 **** ROOT      0
