@<TRIPOS>MOLECULE
ffa22
68 67 1 0 1
SMALL
USER_CHARGES
@<TRIPOS>CRYSIN
    8.4222     8.3606    34.0536    90.0000    90.0000    90.0000  1  1
@<TRIPOS>ATOM
       1 HOL          0.0562     0.0523     1.8761 HOL           1 ffa22      0.440000
       2 OHL          0.5239     0.4883     1.1661 OHL           1 ffa22     -0.610000
       3 OBL         -0.8924    -0.8320     0.0274 OBL           1 ffa22     -0.550000
       4 CL           0.0000     0.0000     0.0000 CL            1 ffa22      0.750000
       5 CTL2         0.6410     0.5978    -1.2348 CTL2          1 ffa22     -0.210000
       6 HAL2         1.7298     0.3774    -1.2275 HAL2          1 ffa22      0.090000
       7 HAL2         0.4977     1.6983    -1.2275 HAL2          1 ffa22      0.090000
       8 CTL2        -0.0108    -0.0097    -2.4819 CTL2          1 ffa22     -0.180000
       9 HAL2        -1.1066     0.1977    -2.4832 HAL2          1 ffa22      0.090000
      10 HAL2         0.1201    -1.1184    -2.4839 HAL2          1 ffa22      0.090000
      11 CTL2         0.5906     0.5512    -3.7608 CTL2          1 ffa22     -0.180000
      12 HAL2         1.6835     0.3383    -3.7897 HAL2          1 ffa22      0.090000
      13 HAL2         0.4561     1.6563    -3.7897 HAL2          1 ffa22      0.090000
      14 CTL2        -0.0760    -0.0707    -4.9797 CTL2          1 ffa22     -0.180000
      15 HAL2        -1.1693     0.1387    -4.9564 HAL2          1 ffa22      0.090000
      16 HAL2         0.0564    -1.1769    -4.9561 HAL2          1 ffa22      0.090000
      17 CTL2         0.5189     0.4847    -6.2623 CTL2          1 ffa22     -0.180000
      18 HAL2         1.6125     0.2731    -6.2877 HAL2          1 ffa22      0.090000
      19 HAL2         0.3850     1.5899    -6.2884 HAL2          1 ffa22      0.090000
      20 CTL2        -0.1460    -0.1364    -7.4786 CTL2          1 ffa22     -0.180000
      21 HAL2        -1.2400     0.0751    -7.4559 HAL2          1 ffa22      0.090000
      22 HAL2        -0.0132    -1.2421    -7.4558 HAL2          1 ffa22      0.090000
      23 CTL2         0.4515     0.4220    -8.7596 CTL2          1 ffa22     -0.180000
      24 HAL2         1.5460     0.2109    -8.7831 HAL2          1 ffa22      0.090000
      25 HAL2         0.3180     1.5273    -8.7829 HAL2          1 ffa22      0.090000
      26 CTL2        -0.2125    -0.1970    -9.9768 CTL2          1 ffa22     -0.180000
      27 HAL2        -1.3057     0.0137    -9.9529 HAL2          1 ffa22      0.090000
      28 HAL2        -0.0784    -1.3031    -9.9536 HAL2          1 ffa22      0.090000
      29 CTL2         0.3866     0.3610   -11.2560 CTL2          1 ffa22     -0.180000
      30 HAL2         1.4798     0.1503   -11.2800 HAL2          1 ffa22      0.090000
      31 HAL2         0.2535     1.4667   -11.2801 HAL2          1 ffa22      0.090000
      32 CTL2        -0.2777    -0.2580   -12.4746 CTL2          1 ffa22     -0.180000
      33 HAL2        -1.3714    -0.0465   -12.4506 HAL2          1 ffa22      0.090000
      34 HAL2        -0.1439    -1.3633   -12.4499 HAL2          1 ffa22      0.090000
      35 CTL2         0.3214     0.3000   -13.7538 CTL2          1 ffa22     -0.180000
      36 HAL2         1.4148     0.0893   -13.7763 HAL2          1 ffa22      0.090000
      37 HAL2         0.1873     1.4062   -13.7770 HAL2          1 ffa22      0.090000
      38 CTL2        -0.3426    -0.3190   -14.9710 CTL2          1 ffa22     -0.180000
      39 HAL2        -1.4371    -0.1079   -14.9475 HAL2          1 ffa22      0.090000
      40 HAL2        -0.2091    -1.4243   -14.9477 HAL2          1 ffa22      0.090000
      41 CTL2         0.2556     0.2398   -16.2515 CTL2          1 ffa22     -0.180000
      42 HAL2         1.3496     0.0283   -16.2741 HAL2          1 ffa22      0.090000
      43 HAL2         0.1217     1.3448   -16.2740 HAL2          1 ffa22      0.090000
      44 CTL2        -0.4079    -0.3788   -17.4695 CTL2          1 ffa22     -0.180000
      45 HAL2        -1.5016    -0.1685   -17.4447 HAL2          1 ffa22      0.090000
      46 HAL2        -0.2743    -1.4853   -17.4454 HAL2          1 ffa22      0.090000
      47 CTL2         0.1902     0.1788   -18.7506 CTL2          1 ffa22     -0.180000
      48 HAL2         1.2832    -0.0323   -18.7724 HAL2          1 ffa22      0.090000
      49 HAL2         0.0562     1.2837   -18.7731 HAL2          1 ffa22      0.090000
      50 CTL2        -0.4747    -0.4407   -19.9698 CTL2          1 ffa22     -0.180000
      51 HAL2        -1.5677    -0.2300   -19.9445 HAL2          1 ffa22      0.090000
      52 HAL2        -0.3407    -1.5460   -19.9437 HAL2          1 ffa22      0.090000
      53 CTL2         0.1223     0.1151   -21.2536 CTL2          1 ffa22     -0.180000
      54 HAL2         1.2154    -0.0947   -21.2747 HAL2          1 ffa22      0.090000
      55 HAL2        -0.0108     1.2217   -21.2748 HAL2          1 ffa22      0.090000
      56 CTL2        -0.5419    -0.5037   -22.4758 CTL2          1 ffa22     -0.180000
      57 HAL2        -1.6350    -0.2920   -22.4476 HAL2          1 ffa22      0.090000
      58 HAL2        -0.4077    -1.6089   -22.4483 HAL2          1 ffa22      0.090000
      59 CTL2         0.0544     0.0520   -23.7637 CTL2          1 ffa22     -0.180000
      60 HAL2         1.1479    -0.1568   -23.7792 HAL2          1 ffa22      0.090000
      61 HAL2        -0.0785     1.1584   -23.7800 HAL2          1 ffa22      0.090000
      62 CTL2        -0.5979    -0.5569   -25.0006 CTL2          1 ffa22     -0.180000
      63 HAL2        -1.6924    -0.3476   -24.9706 HAL2          1 ffa22      0.090000
      64 HAL2        -0.4670    -1.6624   -24.9689 HAL2          1 ffa22      0.090000
      65 CTL3        -0.0000     0.0000   -26.2896 CTL3          1 ffa22     -0.270000
      66 HAL3         1.0904    -0.2165   -26.3265 HAL3          1 ffa22      0.090000
      67 HAL3        -0.1378     1.1023   -26.3278 HAL3          1 ffa22      0.090000
      68 HAL3        -0.4871    -0.4546   -27.1775 HAL3          1 ffa22      0.090000
@<TRIPOS>BOND
       1       57       56 1
       2       27       26 1
       3       32       29 1
       4       66       65 1
       5       12       11 1
       6        9        8 1
       7       38       35 1
       8       62       59 1
       9       14       11 1
      10       31       29 1
      11       18       17 1
      12       45       44 1
      13       67       65 1
      14       10        8 1
      15       35       32 1
      16       47       44 1
      17       40       38 1
      18        2        1 1
      19       43       41 1
      20       17       14 1
      21       21       20 1
      22       55       53 1
      23       39       38 1
      24       54       53 1
      25       58       56 1
      26       24       23 1
      27       68       65 1
      28       42       41 1
      29       51       50 1
      30       52       50 1
      31       50       47 1
      32       59       56 1
      33        2        4 1
      34       61       59 1
      35        5        4 1
      36       13       11 1
      37       37       35 1
      38       36       35 1
      39        6        5 1
      40       25       23 1
      41       48       47 1
      42       44       41 1
      43       60       59 1
      44        8        5 1
      45        4        3 1
      46       26       23 1
      47       20       17 1
      48       34       32 1
      49       53       50 1
      50       63       62 1
      51        7        5 1
      52       49       47 1
      53       19       17 1
      54       46       44 1
      55       28       26 1
      56       23       20 1
      57       65       62 1
      58       22       20 1
      59       15       14 1
      60       33       32 1
      61       29       26 1
      62       16       14 1
      63       11        8 1
      64       56       53 1
      65       30       29 1
      66       64       62 1
      67       41       38 1
@<TRIPOS>SUBSTRUCTURE
       1 ffa22           1 RESIDUE    0 **** ROOT      0
