@<TRIPOS>MOLECULE
ffa24
74 73 1 0 1
SMALL
NO_CHARGES
@<TRIPOS>CRYSIN
    8.6161     8.2898    33.9535    90.0000    90.0000    90.0000  1  1
@<TRIPOS>ATOM
       1 CTL3         0.0000     0.0000    26.9316 CTL3          1 ffa24   
       2 CTL2         0.6252     0.6206    25.7095 CTL2          1 ffa24   
       3 CTL2        -0.0804     0.0659    24.5032 CTL2          1 ffa24   
       4 CTL2         0.5315     0.6588    23.2743 CTL2          1 ffa24   
       5 CTL2        -0.1880     0.0319    22.1294 CTL2          1 ffa24   
       6 CTL2         0.4414     0.5810    20.9066 CTL2          1 ffa24   
       7 CTL2        -0.2741    -0.0860    19.7965 CTL2          1 ffa24   
       8 CTL2         0.3676     0.4740    18.5956 CTL2          1 ffa24   
       9 CTL2        -0.3586    -0.1681    17.4894 CTL2          1 ffa24   
      10 CTL2         0.2850     0.4379    16.3173 CTL2          1 ffa24   
      11 CTL2        -0.4418    -0.1780    15.2040 CTL2          1 ffa24   
      12 CTL2         0.2174     0.4425    14.0504 CTL2          1 ffa24   
      13 CTL2        -0.4919    -0.1837    12.9340 CTL2          1 ffa24   
      14 CTL2         0.1865     0.4116    11.7785 CTL2          1 ffa24   
      15 CTL2        -0.5106    -0.2423    10.6672 CTL2          1 ffa24   
      16 CTL2         0.1534     0.3355     9.4924 CTL2          1 ffa24   
      17 CTL2        -0.5798    -0.2998     8.3859 CTL2          1 ffa24   
      18 CTL2         0.0114     0.3194     7.1881 CTL2          1 ffa24   
      19 CTL2        -0.7705    -0.2609     6.0727 CTL2          1 ffa24   
      20 CTL2        -0.1829     0.3570     4.8613 CTL2          1 ffa24   
      21 CTL2        -0.8700    -0.2676     3.6934 CTL2          1 ffa24   
      22 CTL2        -0.1025     0.1966     2.4937 CTL2          1 ffa24   
      23 CTL2        -0.6606    -0.4525     1.2588 CTL2          1 ffa24   
      24 CL           0.0000     0.0000    -0.0000 CL            1 ffa24   
      25 OCL          1.1390     0.6934     0.0958 OCL           1 ffa24   
      26 HL           1.4718     0.8804     0.9958 HL            1 ffa24   
      27 OBL         -0.4809    -0.2895    -1.1214 OBL           1 ffa24   
      28 HAL3         0.4831     0.3764    27.8320 HAL3          1 ffa24   
      29 HAL3        -1.0685     0.2368    26.9690 HAL3          1 ffa24   
      30 HAL3         0.1046    -1.0896    26.8955 HAL3          1 ffa24   
      31 HAL2         0.5269     1.7121    25.7279 HAL2          1 ffa24   
      32 HAL2         1.6944     0.3846    25.6554 HAL2          1 ffa24   
      33 HAL2         0.0103    -1.0279    24.4671 HAL2          1 ffa24   
      34 HAL2        -1.1526     0.3004    24.5279 HAL2          1 ffa24   
      35 HAL2         0.4137     1.7493    23.2454 HAL2          1 ffa24   
      36 HAL2         1.6052     0.4395    23.2124 HAL2          1 ffa24   
      37 HAL2        -0.0928    -1.0622    22.1439 HAL2          1 ffa24   
      38 HAL2        -1.2601     0.2686    22.1461 HAL2          1 ffa24   
      39 HAL2         0.3273     1.6715    20.8466 HAL2          1 ffa24   
      40 HAL2         1.5154     0.3560    20.8640 HAL2          1 ffa24   
      41 HAL2        -0.1600    -1.1779    19.8267 HAL2          1 ffa24   
      42 HAL2        -1.3493     0.1380    19.8095 HAL2          1 ffa24   
      43 HAL2         0.2657     1.5674    18.5538 HAL2          1 ffa24   
      44 HAL2         1.4397     0.2374    18.5555 HAL2          1 ffa24   
      45 HAL2        -0.2409    -1.2600    17.4955 HAL2          1 ffa24   
      46 HAL2        -1.4339     0.0558    17.5158 HAL2          1 ffa24   
      47 HAL2         0.1767     1.5318    16.3080 HAL2          1 ffa24   
      48 HAL2         1.3588     0.2072    16.2758 HAL2          1 ffa24   
      49 HAL2        -0.3317    -1.2712    15.1996 HAL2          1 ffa24   
      50 HAL2        -1.5152     0.0541    15.2323 HAL2          1 ffa24   
      51 HAL2         0.1003     1.5351    14.0460 HAL2          1 ffa24   
      52 HAL2         1.2934     0.2187    14.0257 HAL2          1 ffa24   
      53 HAL2        -0.3879    -1.2779    12.9494 HAL2          1 ffa24   
      54 HAL2        -1.5649     0.0530    12.9492 HAL2          1 ffa24   
      55 HAL2         0.0676     1.5037    11.7572 HAL2          1 ffa24   
      56 HAL2         1.2623     0.1881    11.7740 HAL2          1 ffa24   
      57 HAL2        -0.3982    -1.3347    10.7026 HAL2          1 ffa24   
      58 HAL2        -1.5861    -0.0151    10.6858 HAL2          1 ffa24   
      59 HAL2         0.0539     1.4299     9.4797 HAL2          1 ffa24   
      60 HAL2         1.2245     0.0946     9.4720 HAL2          1 ffa24   
      61 HAL2        -0.4464    -1.3899     8.3957 HAL2          1 ffa24   
      62 HAL2        -1.6572    -0.0945     8.4555 HAL2          1 ffa24   
      63 HAL2        -0.0810     1.4136     7.2201 HAL2          1 ffa24   
      64 HAL2         1.0809     0.0782     7.1185 HAL2          1 ffa24   
      65 HAL2        -0.6678    -1.3543     6.0673 HAL2          1 ffa24   
      66 HAL2        -1.8379    -0.0258     6.1698 HAL2          1 ffa24   
      67 HAL2        -0.3202     1.4461     4.8760 HAL2          1 ffa24   
      68 HAL2         0.8994     0.1666     4.8414 HAL2          1 ffa24   
      69 HAL2        -0.8451    -1.3620     3.7760 HAL2          1 ffa24   
      70 HAL2        -1.9217     0.0402     3.6647 HAL2          1 ffa24   
      71 HAL2        -0.1475     1.2912     2.4310 HAL2          1 ffa24   
      72 HAL2         0.9506    -0.0847     2.6292 HAL2          1 ffa24   
      73 HAL2        -0.5524    -1.5404     1.3450 HAL2          1 ffa24   
      74 HAL2        -1.7302    -0.2162     1.1977 HAL2          1 ffa24   
@<TRIPOS>BOND
       1        9       45 1
       2        7       42 1
       3       21       69 1
       4       13       14 1
       5       23       74 1
       6       10       11 1
       7        1       29 1
       8       23       24 1
       9        7        8 1
      10        8       44 1
      11        1       28 1
      12        6        7 1
      13        6       39 1
      14       16       59 1
      15       12       52 1
      16       18       63 1
      17       25       26 1
      18       17       62 1
      19        5       38 1
      20        1       30 1
      21       16       60 1
      22       17       61 1
      23        9       46 1
      24       15       57 1
      25       24       25 1
      26        3        4 1
      27        5        6 1
      28        2       32 1
      29       21       70 1
      30       20       67 1
      31       13       53 1
      32       22       72 1
      33       19       65 1
      34       11       12 1
      35       14       56 1
      36        1        2 1
      37       35        4 1
      38        2       31 1
      39       18       19 1
      40       14       55 1
      41        4        5 1
      42        6       40 1
      43       19       20 1
      44       11       50 1
      45       10       48 1
      46       37        5 1
      47        8        9 1
      48       11       49 1
      49       22       71 1
      50       18       64 1
      51       23       73 1
      52       36        4 1
      53       22       23 1
      54       13       54 1
      55        8       43 1
      56        3       33 1
      57       15       16 1
      58        3       34 1
      59       16       17 1
      60        2        3 1
      61       21       22 1
      62        7       41 1
      63       10       47 1
      64       12       13 1
      65       15       58 1
      66       12       51 1
      67       14       15 1
      68       17       18 1
      69       19       66 1
      70       24       27 1
      71        9       10 1
      72       20       21 1
      73       20       68 1
@<TRIPOS>SUBSTRUCTURE
       1 ffa24           1 RESIDUE    0 **** ROOT      0
