@<TRIPOS>MOLECULE
ffa24
74 73 1 0 1
SMALL
NO_CHARGES
@<TRIPOS>CRYSIN
    8.5218     8.4692    33.9510    90.0000    90.0000    90.0000  1  1
@<TRIPOS>ATOM
       1 CTL3         0.0000     0.0000     0.0000 CTL3          1 ffa24   
       2 CTL2         0.6280     0.6132     1.2244 CTL2          1 ffa24   
       3 CTL2        -0.0704     0.0461     2.4292 CTL2          1 ffa24   
       4 CTL2         0.5445     0.6315     3.6602 CTL2          1 ffa24   
       5 CTL2        -0.1678    -0.0073     4.8030 CTL2          1 ffa24   
       6 CTL2         0.4647     0.5343     6.0276 CTL2          1 ffa24   
       7 CTL2        -0.2436    -0.1443     7.1353 CTL2          1 ffa24   
       8 CTL2         0.4010     0.4085     8.3380 CTL2          1 ffa24   
       9 CTL2        -0.3181    -0.2453     9.4419 CTL2          1 ffa24   
      10 CTL2         0.3282     0.3538    10.6162 CTL2          1 ffa24   
      11 CTL2        -0.3915    -0.2738    11.7275 CTL2          1 ffa24   
      12 CTL2         0.2701     0.3400    12.8833 CTL2          1 ffa24   
      13 CTL2        -0.4321    -0.2980    13.9976 CTL2          1 ffa24   
      14 CTL2         0.2490     0.2907    15.1550 CTL2          1 ffa24   
      15 CTL2        -0.4409    -0.3748    16.2639 CTL2          1 ffa24   
      16 CTL2         0.2258     0.1961    17.4405 CTL2          1 ffa24   
      17 CTL2        -0.5003    -0.4509    18.5450 CTL2          1 ffa24   
      18 CTL2         0.0936     0.1610    19.7452 CTL2          1 ffa24   
      19 CTL2        -0.6813    -0.4313    20.8591 CTL2          1 ffa24   
      20 CTL2        -0.0910     0.1792    22.0730 CTL2          1 ffa24   
      21 CTL2        -0.7707    -0.4575    23.2387 CTL2          1 ffa24   
      22 CTL2         0.0000    -0.0000    24.4389 CTL2          1 ffa24   
      23 CTL2        -0.5504    -0.6611    25.6709 CTL2          1 ffa24   
      24 CL           0.1138    -0.2162    26.9305 CL            1 ffa24   
      25 OCL          1.2497     0.4824    26.8355 OCL           1 ffa24   
      26 HL           1.5780     0.6779    25.9356 HL            1 ffa24   
      27 OBL         -0.3612    -0.5165    28.0516 OBL           1 ffa24   
      28 HAL3         0.4779     0.3855    -0.8994 HAL3          1 ffa24   
      29 HAL3        -1.0695     0.2330    -0.0310 HAL3          1 ffa24   
      30 HAL3         0.1089    -1.0895     0.0269 HAL3          1 ffa24   
      31 HAL2         0.5254     1.7044     1.2152 HAL2          1 ffa24   
      32 HAL2         1.6983     0.3809     1.2721 HAL2          1 ffa24   
      33 HAL2         0.0247    -1.0476     2.4561 HAL2          1 ffa24   
      34 HAL2        -1.1436     0.2766     2.4108 HAL2          1 ffa24   
      35 HAL2         0.4225     1.7213     3.6984 HAL2          1 ffa24   
      36 HAL2         1.6192     0.4159     3.7159 HAL2          1 ffa24   
      37 HAL2        -0.0685    -1.1010     4.7793 HAL2          1 ffa24   
      38 HAL2        -1.2408     0.2253     4.7927 HAL2          1 ffa24   
      39 HAL2         0.3466     1.6238     6.0968 HAL2          1 ffa24   
      40 HAL2         1.5397     0.3132     6.0639 HAL2          1 ffa24   
      41 HAL2        -0.1255    -1.2355     7.0958 HAL2          1 ffa24   
      42 HAL2        -1.3197     0.0756     7.1286 HAL2          1 ffa24   
      43 HAL2         0.2951     1.5011     8.3889 HAL2          1 ffa24   
      44 HAL2         1.4742     0.1757     8.3717 HAL2          1 ffa24   
      45 HAL2        -0.1962    -1.3366     9.4265 HAL2          1 ffa24   
      46 HAL2        -1.3943    -0.0253     9.4218 HAL2          1 ffa24   
      47 HAL2         0.2157     1.4471    10.6347 HAL2          1 ffa24   
      48 HAL2         1.4030     0.1269    10.6513 HAL2          1 ffa24   
      49 HAL2        -0.2773    -1.3666    11.7227 HAL2          1 ffa24   
      50 HAL2        -1.4660    -0.0456    11.7056 HAL2          1 ffa24   
      51 HAL2         0.1488     1.4320    12.8970 HAL2          1 ffa24   
      52 HAL2         1.3470     0.1201    12.9017 HAL2          1 ffa24   
      53 HAL2        -0.3239    -1.3916    13.9729 HAL2          1 ffa24   
      54 HAL2        -1.5060    -0.0653    13.9888 HAL2          1 ffa24   
      55 HAL2         0.1260     1.3821    15.1855 HAL2          1 ffa24   
      56 HAL2         1.3256     0.0713    15.1531 HAL2          1 ffa24   
      57 HAL2        -0.3245    -1.4665    16.2192 HAL2          1 ffa24   
      58 HAL2        -1.5173    -0.1516    16.2516 HAL2          1 ffa24   
      59 HAL2         0.1221     1.2899    17.4624 HAL2          1 ffa24   
      60 HAL2         1.2979    -0.0408    17.4545 HAL2          1 ffa24   
      61 HAL2        -0.3627    -1.5404    18.5258 HAL2          1 ffa24   
      62 HAL2        -1.5787    -0.2492    18.4815 HAL2          1 ffa24   
      63 HAL2        -0.0031     1.2550    19.7223 HAL2          1 ffa24   
      64 HAL2         1.1642    -0.0767    19.8084 HAL2          1 ffa24   
      65 HAL2        -0.5745    -1.5243    20.8553 HAL2          1 ffa24   
      66 HAL2        -1.7501    -0.1995    20.7684 HAL2          1 ffa24   
      67 HAL2        -0.2326     1.2677    22.0677 HAL2          1 ffa24   
      68 HAL2         0.9921    -0.0072    22.0868 HAL2          1 ffa24   
      69 HAL2        -0.7420    -1.5511    23.1472 HAL2          1 ffa24   
      70 HAL2        -1.8235    -0.1540    23.2743 HAL2          1 ffa24   
      71 HAL2        -0.0489     1.0939    24.5105 HAL2          1 ffa24   
      72 HAL2         1.0536    -0.2761    24.2967 HAL2          1 ffa24   
      73 HAL2        -0.4384    -1.7479    25.5755 HAL2          1 ffa24   
      74 HAL2        -1.6206    -0.4295    25.7383 HAL2          1 ffa24   
@<TRIPOS>BOND
       1       19       65 1
       2       24       27 1
       3       13       53 1
       4       12       51 1
       5        9       45 1
       6       10       48 1
       7        2       31 1
       8       16       17 1
       9       23       73 1
      10        6       40 1
      11        1       29 1
      12       13       14 1
      13       14       56 1
      14       21       70 1
      15        9       46 1
      16       23       24 1
      17        5       38 1
      18       21       69 1
      19       12       13 1
      20       17       61 1
      21        3       33 1
      22        5       37 1
      23        9       10 1
      24        7       41 1
      25        3        4 1
      26       25       26 1
      27       18       64 1
      28        1       30 1
      29        2       32 1
      30       14       55 1
      31       15       58 1
      32        8       43 1
      33       12       52 1
      34       22       71 1
      35       15       57 1
      36        2        1 1
      37       24       25 1
      38        5        6 1
      39        6        7 1
      40       19       20 1
      41       11       50 1
      42        7        8 1
      43        2        3 1
      44       20       21 1
      45       11       49 1
      46       20       68 1
      47       17       18 1
      48       13       54 1
      49       11       12 1
      50       10       11 1
      51       21       22 1
      52       23       74 1
      53       18       63 1
      54        4       36 1
      55       16       59 1
      56        6       39 1
      57       16       60 1
      58       10       47 1
      59        4        5 1
      60       22       23 1
      61        8       44 1
      62       14       15 1
      63       19       66 1
      64       22       72 1
      65        3       34 1
      66       15       16 1
      67        7       42 1
      68       18       19 1
      69       17       62 1
      70       20       67 1
      71        4       35 1
      72        1       28 1
      73        8        9 1
@<TRIPOS>SUBSTRUCTURE
       1 ffa24           1 RESIDUE    0 **** ROOT      0
