@<TRIPOS>MOLECULE
ffa24
74 73 1 0 1
SMALL
NO_CHARGES
@<TRIPOS>CRYSIN
    8.0486     8.7913    33.9575    90.0000    90.0000    90.0000  1  1
@<TRIPOS>ATOM
       1 CTL3         0.0000     0.0000     0.0000 CTL3          1 ffa24   
       2 CTL2        -0.8201     0.4723     1.1722 CTL2          1 ffa24   
       3 CTL2        -0.1078     0.0514     2.4277 CTL2          1 ffa24   
       4 CTL2        -0.8977     0.5203     3.6077 CTL2          1 ffa24   
       5 CTL2        -0.1108     0.1052     4.8035 CTL2          1 ffa24   
       6 CTL2        -0.8643     0.6039     5.9767 CTL2          1 ffa24   
       7 CTL2        -0.0395     0.2030     7.1379 CTL2          1 ffa24   
       8 CTL2        -0.8066     0.7087     8.2883 CTL2          1 ffa24   
       9 CTL2        -0.0021     0.2896     9.4460 CTL2          1 ffa24   
      10 CTL2        -0.8126     0.7809    10.5672 CTL2          1 ffa24   
      11 CTL2        -0.0330     0.3535    11.7318 CTL2          1 ffa24   
      12 CTL2        -0.8615     0.8538    12.8334 CTL2          1 ffa24   
      13 CTL2        -0.0776     0.4464    14.0001 CTL2          1 ffa24   
      14 CTL2        -0.8884     0.9730    15.1025 CTL2          1 ffa24   
      15 CTL2        -0.0819     0.5855    16.2634 CTL2          1 ffa24   
      16 CTL2        -0.8720     1.1051    17.3862 CTL2          1 ffa24   
      17 CTL2        -0.0717     0.6773    18.5447 CTL2          1 ffa24   
      18 CTL2        -0.8792     1.1164    19.6949 CTL2          1 ffa24   
      19 CTL2        -0.1162     0.6257    20.8650 CTL2          1 ffa24   
      20 CTL2        -0.9216     1.0625    22.0290 CTL2          1 ffa24   
      21 CTL2        -0.1477     0.6788    23.2456 CTL2          1 ffa24   
      22 CTL2        -0.8630     1.3337    24.3872 CTL2          1 ffa24   
      23 CTL2        -0.1081     1.0839    25.6622 CTL2          1 ffa24   
      24 CL          -0.7807     1.6448    26.8700 CL            1 ffa24   
      25 OCL         -1.7923     2.5006    26.6922 OCL           1 ffa24   
      26 HL          -2.0477     2.7023    25.7703 HL            1 ffa24   
      27 OBL         -0.3881     1.3484    28.0235 OBL           1 ffa24   
      28 HAL3        -0.4823     0.2847    -0.9340 HAL3          1 ffa24   
      29 HAL3         0.1101    -1.0890     0.0324 HAL3          1 ffa24   
      30 HAL3         1.0008     0.4432     0.0381 HAL3          1 ffa24   
      31 HAL2        -1.8251     0.0356     1.1512 HAL2          1 ffa24   
      32 HAL2        -0.9317     1.5628     1.1564 HAL2          1 ffa24   
      33 HAL2         0.9013     0.4828     2.4668 HAL2          1 ffa24   
      34 HAL2         0.0053    -1.0396     2.4730 HAL2          1 ffa24   
      35 HAL2        -1.8971     0.0683     3.6354 HAL2          1 ffa24   
      36 HAL2        -1.0268     1.6102     3.5993 HAL2          1 ffa24   
      37 HAL2         0.8988     0.5377     4.7919 HAL2          1 ffa24   
      38 HAL2        -0.0000    -0.9860     4.8568 HAL2          1 ffa24   
      39 HAL2        -1.8657     0.1574     6.0351 HAL2          1 ffa24   
      40 HAL2        -0.9876     1.6948     5.9491 HAL2          1 ffa24   
      41 HAL2         0.9624     0.6519     7.1092 HAL2          1 ffa24   
      42 HAL2         0.0842    -0.8868     7.1952 HAL2          1 ffa24   
      43 HAL2        -1.8141     0.2716     8.3276 HAL2          1 ffa24   
      44 HAL2        -0.9181     1.8013     8.2584 HAL2          1 ffa24   
      45 HAL2         0.9980     0.7434     9.4412 HAL2          1 ffa24   
      46 HAL2         0.1221    -0.8011     9.4899 HAL2          1 ffa24   
      47 HAL2        -1.8176     0.3357    10.5746 HAL2          1 ffa24   
      48 HAL2        -0.9303     1.8733    10.5385 HAL2          1 ffa24   
      49 HAL2         0.9706     0.8010    11.7381 HAL2          1 ffa24   
      50 HAL2         0.0830    -0.7382    11.7737 HAL2          1 ffa24   
      51 HAL2        -1.8624     0.4003    12.8365 HAL2          1 ffa24   
      52 HAL2        -0.9860     1.9451    12.7878 HAL2          1 ffa24   
      53 HAL2         0.9292     0.8874    13.9869 HAL2          1 ffa24   
      54 HAL2         0.0334    -0.6455    14.0549 HAL2          1 ffa24   
      55 HAL2        -1.8888     0.5190    15.1225 HAL2          1 ffa24   
      56 HAL2        -1.0125     2.0627    15.0366 HAL2          1 ffa24   
      57 HAL2         0.9212     1.0326    16.2297 HAL2          1 ffa24   
      58 HAL2         0.0390    -0.5060    16.3151 HAL2          1 ffa24   
      59 HAL2        -1.8804     0.6682    17.3963 HAL2          1 ffa24   
      60 HAL2        -0.9786     2.1969    17.3367 HAL2          1 ffa24   
      61 HAL2         0.9218     1.1451    18.5350 HAL2          1 ffa24   
      62 HAL2         0.0720    -0.4123    18.5458 HAL2          1 ffa24   
      63 HAL2        -1.8882     0.6836    19.6599 HAL2          1 ffa24   
      64 HAL2        -0.9864     2.2096    19.6946 HAL2          1 ffa24   
      65 HAL2         0.8897     1.0663    20.8727 HAL2          1 ffa24   
      66 HAL2        -0.0030    -0.4655    20.8378 HAL2          1 ffa24   
      67 HAL2        -1.9123     0.5898    22.0145 HAL2          1 ffa24   
      68 HAL2        -1.0797     2.1490    21.9779 HAL2          1 ffa24   
      69 HAL2         0.8860     1.0407    23.1707 HAL2          1 ffa24   
      70 HAL2        -0.1121    -0.4125    23.3422 HAL2          1 ffa24   
      71 HAL2        -1.8901     0.9514    24.4436 HAL2          1 ffa24   
      72 HAL2        -0.9212     2.4115    24.1838 HAL2          1 ffa24   
      73 HAL2         0.8935     1.5225    25.5780 HAL2          1 ffa24   
      74 HAL2        -0.0000     0.0000    25.7928 HAL2          1 ffa24   
@<TRIPOS>BOND
       1       19       20 1
       2       66       19 1
       3       11       12 1
       4       58       15 1
       5       10       11 1
       6       16       17 1
       7       13       14 1
       8       64       18 1
       9       42        7 1
      10       73       23 1
      11       39        6 1
      12       47       10 1
      13       48       10 1
      14        5       38 1
      15        7        6 1
      16       41        7 1
      17       72       22 1
      18       50       11 1
      19       65       19 1
      20        9       10 1
      21       54       13 1
      22       68       20 1
      23       56       14 1
      24        4       35 1
      25       17       18 1
      26        2        1 1
      27       61       17 1
      28        3       33 1
      29        2       32 1
      30       24       25 1
      31       25       26 1
      32       29        1 1
      33       14       15 1
      34       49       11 1
      35        2        3 1
      36        3       34 1
      37       44        8 1
      38       55       14 1
      39       45        9 1
      40       59       16 1
      41        5        6 1
      42       40        6 1
      43       69       21 1
      44       74       23 1
      45       57       15 1
      46       63       18 1
      47       71       22 1
      48        4        5 1
      49       12       13 1
      50        3        4 1
      51       60       16 1
      52       28        1 1
      53       21       22 1
      54       51       12 1
      55       22       23 1
      56       46        9 1
      57       24       27 1
      58        5       37 1
      59        2       31 1
      60       52       12 1
      61       18       19 1
      62       70       21 1
      63       20       21 1
      64       67       20 1
      65       23       24 1
      66       53       13 1
      67       30        1 1
      68        8        7 1
      69        4       36 1
      70       15       16 1
      71       62       17 1
      72        9        8 1
      73       43        8 1
@<TRIPOS>SUBSTRUCTURE
       1 ffa24           1 RESIDUE    0 **** ROOT      0
