@<TRIPOS>MOLECULE
ucer2
129 128 1 0 1
SMALL
NO_CHARGES
@<TRIPOS>CRYSIN
    9.3947    11.1741    38.1525    90.0000    90.0000    90.0000  1  1
@<TRIPOS>ATOM
       1 NH1         -1.3596    -0.6265    29.9072 NH1           1 ucer2   
       2 HN1         -1.8924    -0.9156    30.6973 HN1           1 ucer2   
       3 CLN         -1.8085    -0.8688    28.6635 CLN           1 ucer2   
       4 OBL         -2.8737    -1.4450    28.5151 OBL           1 ucer2   
       5 CTL2        -0.9788    -0.4194    27.4687 CTL2          1 ucer2   
       6 HAL2        -0.8383     0.7104    27.4950 HAL2          1 ucer2   
       7 HAL2         0.0101    -0.9239    27.5091 HAL2          1 ucer2   
       8 CTL2        -1.7247    -0.8232    26.1950 CTL2          1 ucer2   
       9 HAL2        -2.7205    -0.3281    26.1710 HAL2          1 ucer2   
      10 HAL2        -1.8543    -1.9270    26.1709 HAL2          1 ucer2   
      11 CTL2        -0.9005    -0.3765    24.9888 CTL2          1 ucer2   
      12 HAL2         0.0961    -0.8717    25.0158 HAL2          1 ucer2   
      13 HAL2        -0.7700     0.7272    25.0159 HAL2          1 ucer2   
      14 CTL2        -1.6338    -0.7741    23.7048 CTL2          1 ucer2   
      15 HAL2        -2.6274    -0.2789    23.6789 HAL2          1 ucer2   
      16 HAL2        -1.7633    -1.8758    23.6778 HAL2          1 ucer2   
      17 CTL2        -0.8074    -0.3283    22.4967 CTL2          1 ucer2   
      18 HAL2         0.1842    -0.8215    22.5226 HAL2          1 ucer2   
      19 HAL2        -0.6788     0.7745    22.5218 HAL2          1 ucer2   
      20 CTL2        -1.5417    -0.7239    21.2118 CTL2          1 ucer2   
      21 HAL2        -2.5353    -0.2307    21.1848 HAL2          1 ucer2   
      22 HAL2        -1.6713    -1.8276    21.1857 HAL2          1 ucer2   
      23 CTL2        -0.7183    -0.2791    20.0025 CTL2          1 ucer2   
      24 HAL2         0.2763    -0.7733    20.0285 HAL2          1 ucer2   
      25 HAL2        -0.5878     0.8247    20.0287 HAL2          1 ucer2   
      26 CTL2        -1.4517    -0.6757    18.7186 CTL2          1 ucer2   
      27 HAL2        -2.4443    -0.1805    18.6927 HAL2          1 ucer2   
      28 HAL2        -1.5802    -1.7784    18.6915 HAL2          1 ucer2   
      29 CTL2        -0.6263    -0.2299    17.5094 CTL2          1 ucer2   
      30 HAL2         0.3664    -0.7230    17.5353 HAL2          1 ucer2   
      31 HAL2        -0.4968     0.8729    17.5365 HAL2          1 ucer2   
      32 CTL2        -1.3596    -0.6265    16.2255 CTL2          1 ucer2   
      33 HAL2        -2.3543    -0.1323    16.1995 HAL2          1 ucer2   
      34 HAL2        -1.4891    -1.7282    16.1994 HAL2          1 ucer2   
      35 CTL2        -0.5361    -0.1796    15.0153 CTL2          1 ucer2   
      36 HAL2         0.4594    -0.6738    15.0423 HAL2          1 ucer2   
      37 HAL2        -0.4047     0.9241    15.0435 HAL2          1 ucer2   
      38 CTL2        -1.2685    -0.5772    13.7323 CTL2          1 ucer2   
      39 HAL2        -2.2631    -0.0830    13.7054 HAL2          1 ucer2   
      40 HAL2        -1.3991    -1.6800    13.7062 HAL2          1 ucer2   
      41 CTL2        -0.4451    -0.1314    12.5231 CTL2          1 ucer2   
      42 HAL2         0.5505    -0.6246    12.5502 HAL2          1 ucer2   
      43 HAL2        -0.3146     0.9723    12.5493 HAL2          1 ucer2   
      44 CTL2        -1.1775    -0.5271    11.2402 CTL2          1 ucer2   
      45 HAL2        -2.1721    -0.0339    11.2133 HAL2          1 ucer2   
      46 HAL2        -1.3070    -1.6308    11.2121 HAL2          1 ucer2   
      47 CTL2        -0.3531    -0.0822    10.0300 CTL2          1 ucer2   
      48 HAL2         0.6416    -0.5764    10.0560 HAL2          1 ucer2   
      49 HAL2        -0.2226     1.0205    10.0582 HAL2          1 ucer2   
      50 CTL2        -1.0865    -0.4798     8.7471 CTL2          1 ucer2   
      51 HAL2        -2.0810     0.0144     8.7191 HAL2          1 ucer2   
      52 HAL2        -1.2170    -1.5826     8.7199 HAL2          1 ucer2   
      53 CTL2        -0.2650    -0.0350     7.5357 CTL2          1 ucer2   
      54 HAL2         0.7295    -0.5262     7.5647 HAL2          1 ucer2   
      55 HAL2        -0.1346     1.0677     7.5648 HAL2          1 ucer2   
      56 CTL2        -1.0045    -0.4337     6.2554 CTL2          1 ucer2   
      57 HAL2        -1.1456    -1.5352     6.2598 HAL2          1 ucer2   
      58 HAL2        -2.0037     0.0477     6.2599 HAL2          1 ucer2   
      59 CTL2        -0.2117    -0.0052     5.0181 CTL2          1 ucer2   
      60 HAL2        -0.0624     1.0959     5.0301 HAL2          1 ucer2   
      61 HAL2         0.7897    -0.4810     5.0299 HAL2          1 ucer2   
      62 CTL2        -0.9410    -0.3998     3.7334 CTL2          1 ucer2   
      63 HAL2        -1.1162    -1.4969     3.7192 HAL2          1 ucer2   
      64 HAL2        -1.9269     0.1118     3.6923 HAL2          1 ucer2   
      65 CTL2        -0.1052    -0.0008     2.5157 CTL2          1 ucer2   
      66 HAL2         0.0674     1.0975     2.5228 HAL2          1 ucer2   
      67 HAL2         0.8845    -0.5044     2.5612 HAL2          1 ucer2   
      68 CTL2        -0.8231    -0.3992     1.2244 CTL2          1 ucer2   
      69 HAL2        -0.9932    -1.4977     1.2265 HAL2          1 ucer2   
      70 HAL2        -1.8166     0.0931     1.1955 HAL2          1 ucer2   
      71 CTL3         0.0000     0.0000    -0.0000 CTL3          1 ucer2   
      72 HAL3         0.9884    -0.5043     0.0314 HAL3          1 ucer2   
      73 HAL3        -0.5455    -0.3096    -0.9177 HAL3          1 ucer2   
      74 HAL3         0.1463     1.1036    -0.0081 HAL3          1 ucer2   
      75 CTL1        -0.1121     0.0488    30.0963 CTL1          1 ucer2   
      76 HAL1         0.5881    -0.1478    29.2555 HAL1          1 ucer2   
      77 CTL2         0.5717    -0.4538    31.3774 CTL2          1 ucer2   
      78 HAL2        -0.0883    -0.1995    32.2347 HAL2          1 ucer2   
      79 HAL2         1.5209     0.0998    31.5424 HAL2          1 ucer2   
      80 OHL          0.8265    -1.8474    31.3104 OHL           1 ucer2   
      81 HOL          1.2130    -2.1389    32.1390 HOL           1 ucer2   
      82 CTL1        -0.3725     1.5222    30.2141 CTL1          1 ucer2   
      83 HAL1        -1.4601     1.7299    30.1212 HAL1          1 ucer2   
      84 OHL          0.1330     2.0918    31.4117 OHL           1 ucer2   
      85 HOL         -0.0389     3.0364    31.4376 HOL           1 ucer2   
      86 CEL1         0.2551     2.2476    29.0600 CEL1          1 ucer2   
      87 HEL1         0.4906     3.3085    29.4049 HEL1          1 ucer2   
      88 CEL1        -0.3351     2.3321    27.8614 CEL1          1 ucer2   
      89 HEL1        -0.9093     3.3170    27.8620 HEL1          1 ucer2   
      90 CTL2         0.4311     2.3018    26.5693 CTL2          1 ucer2   
      91 HAL2         0.9601     1.3317    26.4517 HAL2          1 ucer2   
      92 HAL2         1.2010     3.1017    26.5221 HAL2          1 ucer2   
      93 CTL2        -0.5076     2.4800    25.3735 CTL2          1 ucer2   
      94 HAL2        -1.0009     3.4754    25.4004 HAL2          1 ucer2   
      95 HAL2        -1.2476     1.6525    25.3254 HAL2          1 ucer2   
      96 CTL2         0.3658     2.4118    24.1209 CTL2          1 ucer2   
      97 HAL2         0.8480     1.4228    23.9583 HAL2          1 ucer2   
      98 HAL2         1.0957     3.2437    24.0313 HAL2          1 ucer2   
      99 CTL2        -0.6475     3.5226    22.9317 CTL2          1 ucer2   
     100 HAL2        -1.1252     3.5874    22.9089 HAL2          1 ucer2   
     101 HAL2        -1.3699     1.7766    22.8343 HAL2          1 ucer2   
     102 CTL2         0.2324     2.5278    21.7102 CTL2          1 ucer2   
     103 HAL2         0.7136     1.5558    21.4689 HAL2          1 ucer2   
     104 HAL2         0.9574     3.3508    21.5411 HAL2          1 ucer2   
     105 CTL2        -0.7388     2.7064    20.5427 CTL2          1 ucer2   
     106 HAL2        -1.2416     3.6894    20.4197 HAL2          1 ucer2   
     107 HAL2        -1.4863     1.9055    20.3467 HAL2          1 ucer2   
     108 CTL2         0.0902     2.6459    19.2571 CTL2          1 ucer2   
     109 HAL2         0.5800     1.6877    18.9835 HAL2          1 ucer2   
     110 HAL2         0.8209     3.4577    19.0539 HAL2          1 ucer2   
     111 CTL2        -0.8464     2.8212    18.0592 CTL2          1 ucer2   
     112 HAL2        -1.3650     3.7954    17.9321 HAL2          1 ucer2   
     113 HAL2        -1.6029     2.0344    17.8631 HAL2          1 ucer2   
     114 CTL2        -0.0591     2.7684    16.7466 CTL2          1 ucer2   
     115 HAL2         0.4496     1.8117    16.4950 HAL2          1 ucer2   
     116 HAL2         0.6894     3.5706    16.5671 HAL2          1 ucer2   
     117 CTL2        -0.9594     2.9404    15.5245 CTL2          1 ucer2   
     118 HAL2        -1.4914     3.9134    15.4437 HAL2          1 ucer2   
     119 HAL2        -1.7292     2.1535    15.3707 HAL2          1 ucer2   
     120 CTL2        -0.1967     2.8908    14.2017 CTL2          1 ucer2   
     121 HAL2         0.3232     1.9267    14.0066 HAL2          1 ucer2   
     122 HAL2         0.5630     3.6906    14.0778 HAL2          1 ucer2   
     123 CTL2        -1.0843     3.0601    12.9661 CTL2          1 ucer2   
     124 HAL2        -1.6192     4.0351    12.9634 HAL2          1 ucer2   
     125 HAL2        -1.8632     2.2711    12.8950 HAL2          1 ucer2   
     126 CTL3        -0.3361     3.0118    11.6336 CTL3          1 ucer2   
     127 HAL3        -0.9785     3.1338    10.7367 HAL3          1 ucer2   
     128 HAL3         0.1963     2.0449    11.5081 HAL3          1 ucer2   
     129 HAL3         0.4384     3.8105    11.5945 HAL3          1 ucer2   
@<TRIPOS>BOND
       1       59       56 1
       2       71       73 1
       3      105      107 1
       4       96       99 1
       5      108      111 1
       6      123      124 1
       7       90       93 1
       8       82       86 1
       9      126      129 1
      10       64       62 1
      11       53       56 1
      12       17       20 1
      13       71       74 1
      14      105      108 1
      15       17       18 1
      16       53       54 1
      17       80       81 1
      18        5        6 1
      19       41       42 1
      20       93       94 1
      21      117      118 1
      22      111      114 1
      23       32       34 1
      24       26       28 1
      25       35       38 1
      26      123      125 1
      27       44       45 1
      28        8        9 1
      29       77       79 1
      30        1        2 1
      31       82       83 1
      32       68       70 1
      33      102      104 1
      34       44       46 1
      35        8       10 1
      36      117      119 1
      37       88       90 1
      38      108      110 1
      39       26       29 1
      40      123      126 1
      41      126      128 1
      42       90       92 1
      43       23       20 1
      44       59       62 1
      45       88       89 1
      46       68       71 1
      47      102      105 1
      48       96       98 1
      49       75        1 1
      50       53       55 1
      51       17       19 1
      52      120      121 1
      53       84       85 1
      54      117      120 1
      55       99      100 1
      56       65       66 1
      57       32       35 1
      58       35       37 1
      59       38       39 1
      60       77       78 1
      61        3        4 1
      62      114      115 1
      63       41       44 1
      64        5        8 1
      65       93       95 1
      66       14       15 1
      67       50       51 1
      68       23       24 1
      69       99      101 1
      70       65       67 1
      71      120      123 1
      72       11       14 1
      73       65       68 1
      74       99      102 1
      75       47       50 1
      76       96       97 1
      77      111      112 1
      78       22       20 1
      79      108      109 1
      80        1        3 1
      81       29       30 1
      82       23       25 1
      83       11       12 1
      84       47       48 1
      85       14       17 1
      86       50       53 1
      87       86       87 1
      88       38       40 1
      89       77       80 1
      90       75       76 1
      91       93       96 1
      92       29       32 1
      93       68       69 1
      94      102      103 1
      95       86       88 1
      96       11       13 1
      97       47       49 1
      98       59       61 1
      99      111      113 1
     100       23       26 1
     101       63       62 1
     102       65       62 1
     103       50       52 1
     104       35       36 1
     105       14       16 1
     106      120      122 1
     107       44       47 1
     108        8       11 1
     109       38       41 1
     110       75       82 1
     111       90       91 1
     112      126      127 1
     113       71       72 1
     114      105      106 1
     115       26       27 1
     116       58       56 1
     117       75       77 1
     118       29       31 1
     119       82       84 1
     120       56       57 1
     121       20       21 1
     122      114      117 1
     123        5        7 1
     124       41       43 1
     125        3        5 1
     126      114      116 1
     127       32       33 1
     128       60       59 1
@<TRIPOS>SUBSTRUCTURE
       1 ucer2           1 RESIDUE    0 **** ROOT      0
