@<TRIPOS>MOLECULE
fhead
5 4 1 0 1
SMALL
USER_CHARGES
@<TRIPOS>CRYSIN
    7.1222     7.0472     7.4298    90.0000    90.0000    90.0000  1  1
@<TRIPOS>ATOM
       1 HEL1         0.0000     0.0000     0.0000 HEL1          1 fhead      0.000000
       2 CL           0.5282    -0.4933    -1.3052 CL            1 fhead      0.890000
       3 OCL          0.0000     0.0000    -2.4298 OCL           1 fhead     -0.680000
       4 HL          -0.7005     0.6750    -2.3338 HL            1 fhead      0.420000
       5 OBL          1.4217    -1.3722    -1.3492 OBL           1 fhead     -0.630000
@<TRIPOS>BOND
       1        2        5 1
       2        4        3 1
       3        2        3 1
       4        1        2 1
@<TRIPOS>SUBSTRUCTURE
       1 fhead           1 RESIDUE    0 **** ROOT      0
