@<TRIPOS>MOLECULE
oh24
75 74 1 0 1
SMALL
NO_CHARGES
@<TRIPOS>CRYSIN
    8.1357     8.4640    36.6912    90.0000    90.0000    90.0000  1  1
@<TRIPOS>ATOM
       1 C12         -0.2508    -0.3807   -13.8323 CG321         1 oh24    
       2 C13          0.2471     0.3715   -15.0551 CG321         1 oh24    
       3 H24          0.1377    -1.4245   -13.8525 HGA2          1 oh24    
       4 H25         -1.3634    -0.4312   -13.8526 HGA2          1 oh24    
       5 H27          1.3597     0.4220   -15.0347 HGA2          1 oh24    
       6 H26         -0.1414     1.4153   -15.0348 HGA2          1 oh24    
       7 C14         -0.2081    -0.3165   -16.3307 CG321         1 oh24    
       8 C15          0.2897     0.4357   -17.5535 CG321         1 oh24    
       9 H29         -1.3207    -0.3670   -16.3510 HGA2          1 oh24    
      10 H28          0.1804    -1.3603   -16.3509 HGA2          1 oh24    
      11 H30          1.4024     0.4862   -17.5331 HGA2          1 oh24    
      12 H31         -0.0987     1.4795   -17.5332 HGA2          1 oh24    
      13 C16         -0.1652    -0.2521   -18.8304 CG321         1 oh24    
      14 C17          0.3320     0.4992   -20.0549 CG321         1 oh24    
      15 H32         -1.2783    -0.3033   -18.8502 HGA2          1 oh24    
      16 H33          0.2228    -1.2966   -18.8501 HGA2          1 oh24    
      17 H34          1.4452     0.5506   -20.0329 HGA2          1 oh24    
      18 H35         -0.0559     1.5440   -20.0330 HGA2          1 oh24    
      19 C18         -0.1216    -0.1865   -21.3336 CG321         1 oh24    
      20 C19          0.3758     0.5650   -22.5594 CG321         1 oh24    
      21 H36         -1.2349    -0.2379   -21.3520 HGA2          1 oh24    
      22 H37          0.2662    -1.2312   -21.3518 HGA2          1 oh24    
      23 H39          1.4884     0.6155   -22.5354 HGA2          1 oh24    
      24 H38         -0.0127     1.6089   -22.5356 HGA2          1 oh24    
      25 C20         -0.0766    -0.1188   -23.8419 CG321         1 oh24    
      26 C21          0.4202     0.6318   -25.0730 CG321         1 oh24    
      27 H41         -1.1887    -0.1703   -23.8595 HGA2          1 oh24    
      28 H40          0.3107    -1.1625   -23.8594 HGA2          1 oh24    
      29 H43          1.5326     0.6821   -25.0477 HGA2          1 oh24    
      30 H42          0.0315     1.6754   -25.0478 HGA2          1 oh24    
      31 C22         -0.0334    -0.0538   -26.3589 CG321         1 oh24    
      32 C23          0.4538     0.6841   -27.6048 CG321         1 oh24    
      33 H45         -1.1454    -0.1052   -26.3706 HGA2          1 oh24    
      34 H44          0.3540    -1.0974   -26.3705 HGA2          1 oh24    
      35 H46          1.5665     0.7366   -27.5783 HGA2          1 oh24    
      36 H47          0.0682     1.7287   -27.5776 HGA2          1 oh24    
      37 C24         -0.0000     0.0000   -28.8926 CG331         1 oh24    
      38 H50         -1.1099    -0.0446   -28.9304 HGA3          1 oh24    
      39 H49          0.3926    -1.0395   -28.9311 HGA3          1 oh24    
      40 H48          0.3671     0.5546   -29.7811 HGA3          1 oh24    
      41 C11          0.2039     0.3066   -12.5561 CG321         1 oh24    
      42 C10         -0.2939    -0.4456   -11.3333 CG321         1 oh24    
      43 H23         -0.1841     1.3511   -12.5364 HGA2          1 oh24    
      44 H22          1.3170     0.3578   -12.5363 HGA2          1 oh24    
      45 H21          0.0950    -1.4887   -11.3541 HGA2          1 oh24    
      46 H20         -1.4061    -0.4954   -11.3542 HGA2          1 oh24    
      47 C9           0.1611     0.2422   -10.0563 CG321         1 oh24    
      48 C8          -0.3364    -0.5096    -8.8327 CG321         1 oh24    
      49 H18         -0.2272     1.2862   -10.0375 HGA2          1 oh24    
      50 H19          1.2739     0.2929   -10.0374 HGA2          1 oh24    
      51 H16          0.0522    -1.5532    -8.8543 HGA2          1 oh24    
      52 H17         -1.4489    -0.5599    -8.8544 HGA2          1 oh24    
      53 C7           0.1179     0.1773    -7.5538 CG321         1 oh24    
      54 C6          -0.3802    -0.5754    -6.3282 CG321         1 oh24    
      55 H14         -0.2704     1.2213    -7.5349 HGA2          1 oh24    
      56 H15          1.2307     0.2280    -7.5348 HGA2          1 oh24    
      57 H12          0.0083    -1.6192    -6.3520 HGA2          1 oh24    
      58 H13         -1.4928    -0.6259    -6.3522 HGA2          1 oh24    
      59 C5           0.0726     0.1091    -5.0462 CG321         1 oh24    
      60 C4          -0.4242    -0.6415    -3.8151 CG321         1 oh24    
      61 H10         -0.3159     1.1530    -5.0296 HGA2          1 oh24    
      62 H11          1.1853     0.1597    -5.0295 HGA2          1 oh24    
      63 H8          -0.0365    -1.6848    -3.8389 HGA2          1 oh24    
      64 H9          -1.5360    -0.6926    -3.8391 HGA2          1 oh24    
      65 C3           0.0310     0.0465    -2.5323 CG321         1 oh24    
      66 C2          -0.4571    -0.6910    -1.2828 CG321         1 oh24    
      67 H6          -0.3573     1.0906    -2.5243 HGA2          1 oh24    
      68 H7           1.1438     0.0973    -2.5242 HGA2          1 oh24    
      69 H4          -0.0714    -1.7353    -1.3006 HGA2          1 oh24    
      70 H5          -1.5692    -0.7442    -1.3007 HGA2          1 oh24    
      71 C1           0.0000     0.0000     0.0000 CG321         1 oh24    
      72 O           -0.4831    -0.7299     1.1200 OG311         1 oh24    
      73 H2          -0.3981     1.0402     0.0221 HGA2          1 oh24    
      74 H3           1.1130     0.0403     0.0223 HGA2          1 oh24    
      75 H1          -0.1820    -0.2749     1.9101 HGP1          1 oh24    
@<TRIPOS>BOND
       1        8        7 1
       2        1       41 1
       3        2        7 1
       4       31       34 1
       5       25       26 1
       6       66       70 1
       7       25       28 1
       8       32       35 1
       9        3        1 1
      10       32       37 1
      11       32       36 1
      12       19       14 1
      13       59       62 1
      14       54       59 1
      15        2        1 1
      16       26       29 1
      17        9        7 1
      18       20       23 1
      19       50       47 1
      20       14       13 1
      21       72       75 1
      22       53       48 1
      23       54       53 1
      24       59       60 1
      25       48       47 1
      26       66       71 1
      27       17       14 1
      28       44       41 1
      29       43       41 1
      30       66       69 1
      31       20       19 1
      32       56       53 1
      33       40       37 1
      34       11        8 1
      35       39       37 1
      36       65       68 1
      37       20       25 1
      38       59       61 1
      39       26       30 1
      40       31       33 1
      41       49       47 1
      42       12        8 1
      43       51       48 1
      44       52       48 1
      45       60       64 1
      46       47       42 1
      47       71       74 1
      48       13        8 1
      49       65       66 1
      50       42       41 1
      51       45       42 1
      52       60       65 1
      53       22       19 1
      54        2        5 1
      55       71       72 1
      56       65       67 1
      57       26       31 1
      58       38       37 1
      59       55       53 1
      60       18       14 1
      61        2        6 1
      62       71       73 1
      63       20       24 1
      64       10        7 1
      65       16       13 1
      66       15       13 1
      67       54       57 1
      68       60       63 1
      69        1        4 1
      70       25       27 1
      71       54       58 1
      72       46       42 1
      73       21       19 1
      74       31       32 1
@<TRIPOS>SUBSTRUCTURE
       1 oh24            1 RESIDUE    0 **** ROOT      0
