@<TRIPOS>MOLECULE
oh24
75 74 1 0 1
SMALL
USER_CHARGES
@<TRIPOS>CRYSIN
    8.1357     8.4641    36.6912    90.0000    90.0000    90.0000  1  1
@<TRIPOS>ATOM
       1 CG321       -0.2508    -0.3807   -13.8323 CG321         1 oh24      -0.180000
       2 CG321        0.2471     0.3715   -15.0551 CG321         1 oh24      -0.180000
       3 HGA2         0.1377    -1.4245   -13.8525 HGA2          1 oh24       0.090000
       4 HGA2        -1.3634    -0.4312   -13.8526 HGA2          1 oh24       0.090000
       5 HGA2         1.3597     0.4220   -15.0347 HGA2          1 oh24       0.090000
       6 HGA2        -0.1414     1.4153   -15.0348 HGA2          1 oh24       0.090000
       7 CG321       -0.2081    -0.3165   -16.3307 CG321         1 oh24      -0.180000
       8 CG321        0.2897     0.4357   -17.5535 CG321         1 oh24      -0.180000
       9 HGA2        -1.3207    -0.3670   -16.3510 HGA2          1 oh24       0.090000
      10 HGA2         0.1804    -1.3603   -16.3509 HGA2          1 oh24       0.090000
      11 HGA2         1.4024     0.4862   -17.5331 HGA2          1 oh24       0.090000
      12 HGA2        -0.0987     1.4795   -17.5332 HGA2          1 oh24       0.090000
      13 CG321       -0.1652    -0.2521   -18.8304 CG321         1 oh24      -0.180000
      14 CG321        0.3320     0.4992   -20.0549 CG321         1 oh24      -0.180000
      15 HGA2        -1.2783    -0.3033   -18.8502 HGA2          1 oh24       0.090000
      16 HGA2         0.2228    -1.2966   -18.8501 HGA2          1 oh24       0.090000
      17 HGA2         1.4452     0.5506   -20.0329 HGA2          1 oh24       0.090000
      18 HGA2        -0.0559     1.5440   -20.0330 HGA2          1 oh24       0.090000
      19 CG321       -0.1216    -0.1865   -21.3336 CG321         1 oh24      -0.180000
      20 CG321        0.3758     0.5650   -22.5594 CG321         1 oh24      -0.180000
      21 HGA2        -1.2349    -0.2379   -21.3520 HGA2          1 oh24       0.090000
      22 HGA2         0.2662    -1.2312   -21.3518 HGA2          1 oh24       0.090000
      23 HGA2         1.4884     0.6155   -22.5354 HGA2          1 oh24       0.090000
      24 HGA2        -0.0127     1.6089   -22.5356 HGA2          1 oh24       0.090000
      25 CG321       -0.0766    -0.1188   -23.8419 CG321         1 oh24      -0.180000
      26 CG321        0.4202     0.6318   -25.0730 CG321         1 oh24      -0.180000
      27 HGA2        -1.1887    -0.1703   -23.8595 HGA2          1 oh24       0.090000
      28 HGA2         0.3107    -1.1625   -23.8594 HGA2          1 oh24       0.090000
      29 HGA2         1.5326     0.6821   -25.0477 HGA2          1 oh24       0.090000
      30 HGA2         0.0315     1.6754   -25.0478 HGA2          1 oh24       0.090000
      31 CG321       -0.0334    -0.0538   -26.3589 CG321         1 oh24      -0.180000
      32 CG321        0.4538     0.6841   -27.6048 CG321         1 oh24      -0.180000
      33 HGA2        -1.1454    -0.1052   -26.3706 HGA2          1 oh24       0.090000
      34 HGA2         0.3540    -1.0974   -26.3705 HGA2          1 oh24       0.090000
      35 HGA2         1.5665     0.7366   -27.5783 HGA2          1 oh24       0.090000
      36 HGA2         0.0682     1.7287   -27.5776 HGA2          1 oh24       0.090000
      37 CG331       -0.0000     0.0000   -28.8926 CG331         1 oh24      -0.270000
      38 HGA3        -1.1099    -0.0446   -28.9304 HGA3          1 oh24       0.090000
      39 HGA3         0.3926    -1.0395   -28.9311 HGA3          1 oh24       0.090000
      40 HGA3         0.3671     0.5546   -29.7811 HGA3          1 oh24       0.090000
      41 CG321        0.2039     0.3066   -12.5561 CG321         1 oh24      -0.180000
      42 CG321       -0.2939    -0.4456   -11.3333 CG321         1 oh24      -0.180000
      43 HGA2        -0.1841     1.3511   -12.5364 HGA2          1 oh24       0.090000
      44 HGA2         1.3170     0.3578   -12.5363 HGA2          1 oh24       0.090000
      45 HGA2         0.0950    -1.4887   -11.3541 HGA2          1 oh24       0.090000
      46 HGA2        -1.4061    -0.4954   -11.3542 HGA2          1 oh24       0.090000
      47 CG321        0.1611     0.2422   -10.0563 CG321         1 oh24      -0.180000
      48 CG321       -0.3364    -0.5096    -8.8327 CG321         1 oh24      -0.180000
      49 HGA2        -0.2272     1.2862   -10.0375 HGA2          1 oh24       0.090000
      50 HGA2         1.2739     0.2929   -10.0374 HGA2          1 oh24       0.090000
      51 HGA2         0.0522    -1.5532    -8.8543 HGA2          1 oh24       0.090000
      52 HGA2        -1.4489    -0.5599    -8.8544 HGA2          1 oh24       0.090000
      53 CG321        0.1179     0.1773    -7.5538 CG321         1 oh24      -0.180000
      54 CG321       -0.3802    -0.5754    -6.3282 CG321         1 oh24      -0.180000
      55 HGA2        -0.2704     1.2213    -7.5349 HGA2          1 oh24       0.090000
      56 HGA2         1.2307     0.2280    -7.5348 HGA2          1 oh24       0.090000
      57 HGA2         0.0083    -1.6192    -6.3520 HGA2          1 oh24       0.090000
      58 HGA2        -1.4928    -0.6259    -6.3522 HGA2          1 oh24       0.090000
      59 CG321        0.0726     0.1091    -5.0462 CG321         1 oh24      -0.180000
      60 CG321       -0.4242    -0.6415    -3.8151 CG321         1 oh24      -0.180000
      61 HGA2        -0.3159     1.1530    -5.0296 HGA2          1 oh24       0.090000
      62 HGA2         1.1853     0.1597    -5.0295 HGA2          1 oh24       0.090000
      63 HGA2        -0.0365    -1.6848    -3.8389 HGA2          1 oh24       0.090000
      64 HGA2        -1.5360    -0.6926    -3.8391 HGA2          1 oh24       0.090000
      65 CG321        0.0310     0.0465    -2.5323 CG321         1 oh24      -0.180000
      66 CG321       -0.4571    -0.6910    -1.2828 CG321         1 oh24      -0.181000
      67 HGA2        -0.3573     1.0906    -2.5243 HGA2          1 oh24       0.090000
      68 HGA2         1.1438     0.0973    -2.5242 HGA2          1 oh24       0.090000
      69 HGA2        -0.0714    -1.7353    -1.3006 HGA2          1 oh24       0.090000
      70 HGA2        -1.5692    -0.7442    -1.3007 HGA2          1 oh24       0.090000
      71 CG321        0.0000     0.0000     0.0000 CG321         1 oh24       0.051000
      72 OG311       -0.4831    -0.7299     1.1200 OG311         1 oh24      -0.650000
      73 HGA2        -0.3981     1.0402     0.0221 HGA2          1 oh24       0.090000
      74 HGA2         1.1130     0.0403     0.0223 HGA2          1 oh24       0.090000
      75 HGP1        -0.1820    -0.2749     1.9101 HGP1          1 oh24       0.420000
@<TRIPOS>BOND
       1       17       14 1
       2        2        1 1
       3       40       37 1
       4       18       14 1
       5       44       41 1
       6       16       13 1
       7       75       72 1
       8       37       32 1
       9        7        2 1
      10       12        8 1
      11        9        7 1
      12       10        7 1
      13       46       42 1
      14        6        2 1
      15       67       65 1
      16       71       66 1
      17        5        2 1
      18       25       20 1
      19       20       19 1
      20       15       13 1
      21       36       32 1
      22       33       31 1
      23       62       59 1
      24       38       37 1
      25       69       66 1
      26       19       14 1
      27       57       54 1
      28       23       20 1
      29       48       47 1
      30       51       48 1
      31       30       26 1
      32        4        1 1
      33       63       60 1
      34        8        7 1
      35       28       25 1
      36       29       26 1
      37       61       59 1
      38       42       41 1
      39       60       59 1
      40       34       31 1
      41       59       54 1
      42       49       47 1
      43       56       53 1
      44        3        1 1
      45       11        8 1
      46       74       71 1
      47       50       47 1
      48       70       66 1
      49       73       71 1
      50       39       37 1
      51       13        8 1
      52       22       19 1
      53       53       48 1
      54       66       65 1
      55       24       20 1
      56       43       41 1
      57       64       60 1
      58       14       13 1
      59       32       31 1
      60       35       32 1
      61       41        1 1
      62       68       65 1
      63       58       54 1
      64       65       60 1
      65       21       19 1
      66       26       25 1
      67       45       42 1
      68       52       48 1
      69       72       71 1
      70       47       42 1
      71       55       53 1
      72       27       25 1
      73       31       26 1
      74       54       53 1
@<TRIPOS>SUBSTRUCTURE
       1 oh24            1 RESIDUE    0 **** ROOT      0
