@<TRIPOS>MOLECULE
ucer2
129 128 1 0 1
SMALL
USER_CHARGES
@<TRIPOS>CRYSIN
   12.1795     9.1432    38.0937    90.0000    90.0000    90.0000  1  1
@<TRIPOS>ATOM
       1 NH1         -2.2727    -0.7090    -0.1323 NH1           1 ucer2     -0.530000
       2 HN1         -2.5624    -1.2079     0.6795 HN1           1 ucer2      0.260000
       3 CLN         -2.6674    -1.1141    -1.3517 CLN           1 ucer2      0.580000
       4 OBL         -3.3821    -2.0979    -1.4515 OBL           1 ucer2     -0.530000
       5 CTL2        -2.2142    -0.3374    -2.5802 CTL2          1 ucer2     -0.260000
       6 HAL2        -1.0773    -0.3390    -2.6446 HAL2          1 ucer2      0.130000
       7 HAL2        -2.5864     0.7064    -2.5016 HAL2          1 ucer2      0.130000
       8 CTL2        -2.8081    -1.0168    -3.8162 CTL2          1 ucer2     -0.180000
       9 HAL2        -2.4448    -2.0663    -3.8777 HAL2          1 ucer2      0.090000
      10 HAL2        -3.9179    -1.0075    -3.7518 HAL2          1 ucer2      0.090000
      11 CTL2        -2.3593    -0.2450    -5.0558 CTL2          1 ucer2     -0.180000
      12 HAL2        -2.7223     0.8054    -4.9912 HAL2          1 ucer2      0.090000
      13 HAL2        -1.2492    -0.2534    -5.1172 HAL2          1 ucer2      0.090000
      14 CTL2        -2.9462    -0.9126    -6.3025 CTL2          1 ucer2     -0.180000
      15 HAL2        -2.5827    -1.9600    -6.3659 HAL2          1 ucer2      0.090000
      16 HAL2        -4.0542    -0.9035    -6.2411 HAL2          1 ucer2      0.090000
      17 CTL2        -2.4982    -0.1386    -7.5439 CTL2          1 ucer2     -0.180000
      18 HAL2        -2.8600     0.9066    -7.4807 HAL2          1 ucer2      0.090000
      19 HAL2        -1.3895    -0.1488    -7.6074 HAL2          1 ucer2      0.090000
      20 CTL2        -3.0833    -0.8075    -8.7917 CTL2          1 ucer2     -0.180000
      21 HAL2        -2.7219    -1.8546    -8.8561 HAL2          1 ucer2      0.090000
      22 HAL2        -4.1932    -0.7981    -8.7293 HAL2          1 ucer2      0.090000
      23 CTL2        -2.6367    -0.0363   -10.0343 CTL2          1 ucer2     -0.180000
      24 HAL2        -2.9991     1.0120    -9.9708 HAL2          1 ucer2      0.090000
      25 HAL2        -1.5267    -0.0446   -10.0967 HAL2          1 ucer2      0.090000
      26 CTL2        -3.2227    -0.7040   -11.2810 CTL2          1 ucer2     -0.180000
      27 HAL2        -2.8591    -1.7505   -11.3444 HAL2          1 ucer2      0.090000
      28 HAL2        -4.3315    -0.6938   -11.2196 HAL2          1 ucer2      0.090000
      29 CTL2        -2.7748     0.0690   -12.5235 CTL2          1 ucer2     -0.180000
      30 HAL2        -3.1365     1.1152   -12.4602 HAL2          1 ucer2      0.090000
      31 HAL2        -1.6659     0.0598   -12.5849 HAL2          1 ucer2      0.090000
      32 CTL2        -3.3608    -0.5988   -13.7702 CTL2          1 ucer2     -0.180000
      33 HAL2        -2.9984    -1.6470   -13.8336 HAL2          1 ucer2      0.090000
      34 HAL2        -4.4687    -0.5897   -13.7079 HAL2          1 ucer2      0.090000
      35 CTL2        -2.9123     0.1723   -15.0139 CTL2          1 ucer2     -0.180000
      36 HAL2        -3.2745     1.2215   -14.9494 HAL2          1 ucer2      0.090000
      37 HAL2        -1.8020     0.1648   -15.0742 HAL2          1 ucer2      0.090000
      38 CTL2        -3.4990    -0.4945   -16.2595 CTL2          1 ucer2     -0.180000
      39 HAL2        -3.1367    -1.5427   -16.3239 HAL2          1 ucer2      0.090000
      40 HAL2        -4.6080    -0.4863   -16.1971 HAL2          1 ucer2      0.090000
      41 CTL2        -3.0514     0.2766   -17.5021 CTL2          1 ucer2     -0.180000
      42 HAL2        -3.4126     1.3257   -17.4376 HAL2          1 ucer2      0.090000
      43 HAL2        -1.9414     0.2683   -17.5645 HAL2          1 ucer2      0.090000
      44 CTL2        -3.6362    -0.3904   -18.7478 CTL2          1 ucer2     -0.180000
      45 HAL2        -3.2749    -1.4384   -18.8122 HAL2          1 ucer2      0.090000
      46 HAL2        -4.7462    -0.3809   -18.6873 HAL2          1 ucer2      0.090000
      47 CTL2        -3.1895     0.3819   -19.9913 CTL2          1 ucer2     -0.180000
      48 HAL2        -3.5519     1.4302   -19.9279 HAL2          1 ucer2      0.090000
      49 HAL2        -2.0804     0.3736   -20.0516 HAL2          1 ucer2      0.090000
      50 CTL2        -3.7764    -0.2858   -21.2370 CTL2          1 ucer2     -0.180000
      51 HAL2        -3.4141    -1.3340   -21.3024 HAL2          1 ucer2      0.090000
      52 HAL2        -4.8855    -0.2775   -21.1756 HAL2          1 ucer2      0.090000
      53 CTL2        -3.3302     0.4835   -22.4816 CTL2          1 ucer2     -0.180000
      54 HAL2        -3.6894     1.5313   -22.4153 HAL2          1 ucer2      0.090000
      55 HAL2        -2.2210     0.4752   -22.5409 HAL2          1 ucer2      0.090000
      56 CTL2        -3.9187    -0.1902   -23.7245 CTL2          1 ucer2     -0.180000
      57 HAL2        -5.0254    -0.1928   -23.6318 HAL2          1 ucer2      0.090000
      58 HAL2        -3.5671    -1.2416   -23.7565 HAL2          1 ucer2      0.090000
      59 CTL2        -3.4943     0.5529   -24.9936 CTL2          1 ucer2     -0.180000
      60 HAL2        -2.3857     0.5636   -25.0699 HAL2          1 ucer2      0.090000
      61 HAL2        -3.8388     1.6057   -24.9458 HAL2          1 ucer2      0.090000
      62 CTL2        -4.0778    -0.1111   -26.2412 CTL2          1 ucer2     -0.180000
      63 HAL2        -5.1858    -0.1480   -26.1674 HAL2          1 ucer2      0.090000
      64 HAL2        -3.6983    -1.1527   -26.3211 HAL2          1 ucer2      0.090000
      65 CTL2        -3.6756     0.6782   -27.4886 CTL2          1 ucer2     -0.180000
      66 HAL2        -2.5673     0.7124   -27.5696 HAL2          1 ucer2      0.090000
      67 HAL2        -4.0464     1.7225   -27.4049 HAL2          1 ucer2      0.090000
      68 CTL2        -4.2620     0.0260   -28.7425 CTL2          1 ucer2     -0.180000
      69 HAL2        -5.3695    -0.0057   -28.6523 HAL2          1 ucer2      0.090000
      70 HAL2        -3.9016    -1.0209   -28.8087 HAL2          1 ucer2      0.090000
      71 CTL3        -3.8618     0.8027   -29.9965 CTL3          1 ucer2     -0.300000
      72 HAL3        -4.2345     1.8460   -29.9268 HAL3          1 ucer2      0.100000
      73 HAL3        -4.3091     0.3075   -30.8855 HAL3          1 ucer2      0.100000
      74 HAL3        -2.7527     0.8103   -30.0931 HAL3          1 ucer2      0.100000
      75 CTL1        -1.4339     0.4430    -0.0002 CTL1          1 ucer2      0.030000
      76 HAL1        -1.6078     1.1690    -0.8240 HAL1          1 ucer2      0.120000
      77 CTL2        -1.7437     1.1739     1.3156 CTL2          1 ucer2      0.060000
      78 HAL2        -1.5065     0.4804     2.1512 HAL2          1 ucer2      0.105000
      79 HAL2        -1.0644     2.0453     1.4340 HAL2          1 ucer2      0.105000
      80 OHL         -3.0954     1.6010     1.3597 OHL           1 ucer2     -0.560000
      81 HOL         -3.2695     2.0141     2.2082 HOL           1 ucer2      0.340000
      82 CTL1         0.0000     0.0000     0.0000 CTL1          1 ucer2      0.150000
      83 HAL1         0.0621    -1.1042    -0.1071 HAL1          1 ucer2      0.090000
      84 OHL          0.7218     0.4209     1.1473 OHL           1 ucer2     -0.560000
      85 HOL          1.6365     0.1323     1.0980 HOL           1 ucer2      0.340000
      86 CEL1         0.7040     0.5415    -1.2096 CEL1          1 ucer2     -0.090000
      87 HEL1         1.8101     0.6401    -0.9510 HEL1          1 ucer2      0.090000
      88 CEL1         0.6185    -0.0450    -2.4099 CEL1          1 ucer2     -0.090000
      89 HEL1         1.5209    -0.7374    -2.4870 HEL1          1 ucer2      0.090000
      90 CTL2         0.5815     0.7294    -3.6970 CTL2          1 ucer2     -0.180000
      91 HAL2        -0.3211     1.3762    -3.7378 HAL2          1 ucer2      0.090000
      92 HAL2         1.4651     1.3939    -3.8095 HAL2          1 ucer2      0.090000
      93 CTL2         0.5454    -0.2145    -4.9014 CTL2          1 ucer2     -0.180000
      94 HAL2         1.4703    -0.8283    -4.9532 HAL2          1 ucer2      0.090000
      95 HAL2        -0.3692    -0.8451    -4.8818 HAL2          1 ucer2      0.090000
      96 CTL2         0.4874     0.6706    -6.1462 CTL2          1 ucer2     -0.180000
      97 HAL2        -0.4433     1.2737    -6.2302 HAL2          1 ucer2      0.090000
      98 HAL2         1.3943     1.2918    -6.3034 HAL2          1 ucer2      0.090000
      99 CTL2         1.3649    -0.4636    -7.4184 CTL2          1 ucer2     -0.180000
     100 HAL2         1.3674    -0.9455    -7.4453 HAL2          1 ucer2      0.090000
     101 HAL2        -0.4600    -0.9619    -7.3745 HAL2          1 ucer2      0.090000
     102 CTL2         0.3938     0.5432    -8.5582 CTL2          1 ucer2     -0.180000
     103 HAL2        -0.5265     1.1438    -8.7220 HAL2          1 ucer2      0.090000
     104 HAL2         1.2848     1.1613    -8.7940 HAL2          1 ucer2      0.090000
     105 CTL2         0.3562    -0.4332    -9.7343 CTL2          1 ucer2     -0.180000
     106 HAL2         1.2558    -1.0536    -9.9346 HAL2          1 ucer2      0.090000
     107 HAL2        -0.5448    -1.0734    -9.8642 HAL2          1 ucer2      0.090000
     108 CTL2         0.2977     0.4072   -11.0127 CTL2          1 ucer2     -0.180000
     109 HAL2        -0.6104     1.0149   -11.2097 HAL2          1 ucer2      0.090000
     110 HAL2         1.1757     1.0325   -11.2815 HAL2          1 ucer2      0.090000
     111 CTL2         0.2588    -0.5343   -12.2188 CTL2          1 ucer2     -0.180000
     112 HAL2         1.1473    -1.1693   -12.4224 HAL2          1 ucer2      0.090000
     113 HAL2        -0.6294    -1.1852   -12.3500 HAL2          1 ucer2      0.090000
     114 CTL2         0.2006     0.2640   -13.5246 CTL2          1 ucer2     -0.180000
     115 HAL2        -0.7020     0.8901   -13.6999 HAL2          1 ucer2      0.090000
     116 HAL2         1.0732     0.9080   -13.7691 HAL2          1 ucer2      0.090000
     117 CTL2         0.1610    -0.6409   -14.7548 CTL2          1 ucer2     -0.180000
     118 HAL2         1.0503    -1.2894   -14.9120 HAL2          1 ucer2      0.090000
     119 HAL2        -0.7257    -1.3052   -14.8436 HAL2          1 ucer2      0.090000
     120 CTL2         0.1020     0.1327   -16.0709 CTL2          1 ucer2     -0.180000
     121 HAL2        -0.8020     0.7703   -16.1893 HAL2          1 ucer2      0.090000
     122 HAL2         0.9781     0.7877   -16.2598 HAL2          1 ucer2      0.090000
     123 CTL2         0.0603    -0.7591   -17.3143 CTL2          1 ucer2     -0.180000
     124 HAL2         0.9575    -1.4114   -17.3939 HAL2          1 ucer2      0.090000
     125 HAL2        -0.8230    -1.4330   -17.3206 HAL2          1 ucer2      0.090000
     126 CTL3         0.0000    -0.0000   -18.6402 CTL3          1 ucer2     -0.300000
     127 HAL3        -0.0310    -0.6454   -19.5426 HAL3          1 ucer2      0.100000
     128 HAL3        -0.8996     0.6498   -18.6890 HAL3          1 ucer2      0.100000
     129 HAL3         0.8836     0.6691   -18.7444 HAL3          1 ucer2      0.100000
@<TRIPOS>BOND
       1       38       39 1
       2      117      118 1
       3       77       75 1
       4       59       60 1
       5        3        1 1
       6        2        1 1
       7       26       29 1
       8       41       43 1
       9      120      122 1
      10       62       64 1
      11       11       13 1
      12       44       45 1
      13       65       66 1
      14      123      124 1
      15       26       27 1
      16       68       69 1
      17       90       91 1
      18       47       48 1
      19      126      127 1
      20       93       95 1
      21       71       73 1
      22       41       44 1
      23      120      123 1
      24       62       65 1
      25       96       98 1
      26      108      110 1
      27      105      107 1
      28       35       32 1
      29       77       79 1
      30       56       57 1
      31      114      115 1
      32       35       36 1
      33        8       10 1
      34       17       18 1
      35       11       12 1
      36       77       80 1
      37       34       32 1
      38      102      105 1
      39       17       19 1
      40       44       47 1
      41      123      126 1
      42       65       68 1
      43       55       53 1
      44      108      111 1
      45      105      108 1
      46       75       76 1
      47       14       15 1
      48       88       90 1
      49       90       92 1
      50       47       49 1
      51      126      128 1
      52       68       70 1
      53        8       11 1
      54      126      129 1
      55       47       50 1
      56       90       93 1
      57       68       71 1
      58       96       99 1
      59        3        4 1
      60       80       81 1
      61       65       67 1
      62      123      125 1
      63       44       46 1
      64       26       28 1
      65       99      102 1
      66       32       29 1
      67       75        1 1
      68        5        8 1
      69       56       58 1
      70       35       37 1
      71      114      116 1
      72       23       24 1
      73       50       51 1
      74      117      120 1
      75       38       41 1
      76       93       94 1
      77       59       62 1
      78       71       72 1
      79       20       23 1
      80      111      112 1
      81        5        6 1
      82       20       21 1
      83       56       53 1
      84       23       26 1
      85      111      114 1
      86       82       83 1
      87       50       52 1
      88       78       77 1
      89       38       40 1
      90       59       61 1
      91      117      119 1
      92      102      103 1
      93       20       22 1
      94       14       17 1
      95      105      106 1
      96       99      101 1
      97        5        7 1
      98       33       32 1
      99       23       25 1
     100       99      100 1
     101       17       20 1
     102       82       84 1
     103       11       14 1
     104       86       87 1
     105       14       16 1
     106       71       74 1
     107      102      104 1
     108       93       96 1
     109       50       53 1
     110       88       89 1
     111      108      109 1
     112       82       86 1
     113      111      113 1
     114        3        5 1
     115       84       85 1
     116       62       63 1
     117       41       42 1
     118      120      121 1
     119       54       53 1
     120        8        9 1
     121       96       97 1
     122       56       59 1
     123      114      117 1
     124       35       38 1
     125       86       88 1
     126       29       30 1
     127       82       75 1
     128       31       29 1
@<TRIPOS>SUBSTRUCTURE
       1 ucer2           1 RESIDUE    0 **** ROOT      0
