@<TRIPOS>MOLECULE
ucer2
129 128 1 0 1
SMALL
NO_CHARGES
@<TRIPOS>CRYSIN
   12.1796     9.1432    38.0937    90.0000    90.0000    90.0000  1  1
@<TRIPOS>ATOM
       1 N1          -2.2727    -0.7090    -0.1323 NH1           1 ucer2   
       2 H2          -2.5624    -1.2079     0.6795 HN1           1 ucer2   
       3 C3          -2.6674    -1.1141    -1.3517 CLN           1 ucer2   
       4 O4          -3.3821    -2.0979    -1.4515 OBL           1 ucer2   
       5 C5          -2.2142    -0.3374    -2.5802 CTL2          1 ucer2   
       6 H6          -1.0773    -0.3390    -2.6446 HAL2          1 ucer2   
       7 H7          -2.5864     0.7064    -2.5016 HAL2          1 ucer2   
       8 C8          -2.8081    -1.0168    -3.8162 CTL2          1 ucer2   
       9 H9          -2.4448    -2.0663    -3.8777 HAL2          1 ucer2   
      10 H10         -3.9179    -1.0075    -3.7518 HAL2          1 ucer2   
      11 C11         -2.3593    -0.2450    -5.0558 CTL2          1 ucer2   
      12 H12         -2.7223     0.8054    -4.9912 HAL2          1 ucer2   
      13 H13         -1.2492    -0.2534    -5.1172 HAL2          1 ucer2   
      14 C14         -2.9462    -0.9126    -6.3025 CTL2          1 ucer2   
      15 H15         -2.5827    -1.9600    -6.3659 HAL2          1 ucer2   
      16 H16         -4.0542    -0.9035    -6.2411 HAL2          1 ucer2   
      17 C17         -2.4982    -0.1386    -7.5439 CTL2          1 ucer2   
      18 H18         -2.8600     0.9066    -7.4807 HAL2          1 ucer2   
      19 H19         -1.3895    -0.1488    -7.6074 HAL2          1 ucer2   
      20 C20         -3.0833    -0.8075    -8.7917 CTL2          1 ucer2   
      21 H21         -2.7219    -1.8546    -8.8561 HAL2          1 ucer2   
      22 H22         -4.1932    -0.7981    -8.7293 HAL2          1 ucer2   
      23 C23         -2.6367    -0.0363   -10.0343 CTL2          1 ucer2   
      24 H24         -2.9991     1.0120    -9.9708 HAL2          1 ucer2   
      25 H25         -1.5267    -0.0446   -10.0967 HAL2          1 ucer2   
      26 C26         -3.2227    -0.7040   -11.2810 CTL2          1 ucer2   
      27 H27         -2.8591    -1.7505   -11.3444 HAL2          1 ucer2   
      28 H28         -4.3315    -0.6938   -11.2196 HAL2          1 ucer2   
      29 C29         -2.7748     0.0690   -12.5235 CTL2          1 ucer2   
      30 H30         -3.1365     1.1152   -12.4602 HAL2          1 ucer2   
      31 H31         -1.6659     0.0598   -12.5849 HAL2          1 ucer2   
      32 C32         -3.3608    -0.5988   -13.7702 CTL2          1 ucer2   
      33 H33         -2.9984    -1.6470   -13.8336 HAL2          1 ucer2   
      34 H34         -4.4687    -0.5897   -13.7079 HAL2          1 ucer2   
      35 C35         -2.9123     0.1723   -15.0139 CTL2          1 ucer2   
      36 H36         -3.2745     1.2215   -14.9494 HAL2          1 ucer2   
      37 H37         -1.8020     0.1648   -15.0742 HAL2          1 ucer2   
      38 C38         -3.4990    -0.4945   -16.2595 CTL2          1 ucer2   
      39 H39         -3.1367    -1.5427   -16.3239 HAL2          1 ucer2   
      40 H40         -4.6080    -0.4863   -16.1971 HAL2          1 ucer2   
      41 C41         -3.0514     0.2766   -17.5021 CTL2          1 ucer2   
      42 H42         -3.4126     1.3257   -17.4376 HAL2          1 ucer2   
      43 H43         -1.9414     0.2683   -17.5645 HAL2          1 ucer2   
      44 C44         -3.6362    -0.3904   -18.7478 CTL2          1 ucer2   
      45 H45         -3.2749    -1.4384   -18.8122 HAL2          1 ucer2   
      46 H46         -4.7462    -0.3809   -18.6873 HAL2          1 ucer2   
      47 C47         -3.1895     0.3819   -19.9913 CTL2          1 ucer2   
      48 H48         -3.5519     1.4302   -19.9279 HAL2          1 ucer2   
      49 H49         -2.0804     0.3736   -20.0516 HAL2          1 ucer2   
      50 C50         -3.7764    -0.2858   -21.2370 CTL2          1 ucer2   
      51 H51         -3.4141    -1.3340   -21.3024 HAL2          1 ucer2   
      52 H52         -4.8855    -0.2775   -21.1756 HAL2          1 ucer2   
      53 C53         -3.3302     0.4835   -22.4816 CTL2          1 ucer2   
      54 H54         -3.6894     1.5313   -22.4153 HAL2          1 ucer2   
      55 H55         -2.2210     0.4752   -22.5409 HAL2          1 ucer2   
      56 C56         -3.9187    -0.1902   -23.7245 CTL2          1 ucer2   
      57 H57         -5.0254    -0.1928   -23.6318 HAL2          1 ucer2   
      58 H58         -3.5671    -1.2416   -23.7565 HAL2          1 ucer2   
      59 C59         -3.4943     0.5529   -24.9936 CTL2          1 ucer2   
      60 H60         -2.3857     0.5636   -25.0699 HAL2          1 ucer2   
      61 H61         -3.8388     1.6057   -24.9458 HAL2          1 ucer2   
      62 C62         -4.0778    -0.1111   -26.2412 CTL2          1 ucer2   
      63 H63         -5.1858    -0.1480   -26.1674 HAL2          1 ucer2   
      64 H64         -3.6983    -1.1527   -26.3211 HAL2          1 ucer2   
      65 C65         -3.6756     0.6782   -27.4886 CTL2          1 ucer2   
      66 H66         -2.5673     0.7124   -27.5696 HAL2          1 ucer2   
      67 H67         -4.0464     1.7225   -27.4049 HAL2          1 ucer2   
      68 C68         -4.2620     0.0260   -28.7425 CTL2          1 ucer2   
      69 H69         -5.3695    -0.0057   -28.6523 HAL2          1 ucer2   
      70 H70         -3.9016    -1.0209   -28.8087 HAL2          1 ucer2   
      71 C71         -3.8618     0.8027   -29.9965 CTL3          1 ucer2   
      72 H72         -4.2345     1.8460   -29.9268 HAL3          1 ucer2   
      73 H73         -4.3091     0.3075   -30.8855 HAL3          1 ucer2   
      74 H74         -2.7527     0.8103   -30.0931 HAL3          1 ucer2   
      75 C75         -1.4339     0.4430    -0.0002 CTL1          1 ucer2   
      76 H76         -1.6078     1.1690    -0.8240 HAL1          1 ucer2   
      77 C77         -1.7437     1.1739     1.3156 CTL2          1 ucer2   
      78 H78         -1.5065     0.4804     2.1512 HAL2          1 ucer2   
      79 H79         -1.0644     2.0453     1.4340 HAL2          1 ucer2   
      80 O80         -3.0954     1.6010     1.3597 OHL           1 ucer2   
      81 H81         -3.2695     2.0141     2.2082 HOL           1 ucer2   
      82 C82          0.0000     0.0000     0.0000 CTL1          1 ucer2   
      83 H83          0.0621    -1.1042    -0.1071 HAL1          1 ucer2   
      84 O84          0.7218     0.4209     1.1473 OHL           1 ucer2   
      85 H85          1.6365     0.1323     1.0980 HOL           1 ucer2   
      86 C86          0.7040     0.5415    -1.2096 CEL1          1 ucer2   
      87 H87          1.8101     0.6401    -0.9510 HEL1          1 ucer2   
      88 C88          0.6185    -0.0450    -2.4099 CEL1          1 ucer2   
      89 H89          1.5209    -0.7374    -2.4870 HEL1          1 ucer2   
      90 C90          0.5815     0.7294    -3.6970 CTL2          1 ucer2   
      91 H91         -0.3211     1.3762    -3.7378 HAL2          1 ucer2   
      92 H92          1.4651     1.3939    -3.8095 HAL2          1 ucer2   
      93 C93          0.5454    -0.2145    -4.9014 CTL2          1 ucer2   
      94 H94          1.4703    -0.8283    -4.9532 HAL2          1 ucer2   
      95 H95         -0.3692    -0.8451    -4.8818 HAL2          1 ucer2   
      96 C96          0.4874     0.6706    -6.1462 CTL2          1 ucer2   
      97 H97         -0.4433     1.2737    -6.2302 HAL2          1 ucer2   
      98 H98          1.3943     1.2918    -6.3034 HAL2          1 ucer2   
      99 C99          1.3649    -0.4636    -7.4184 CTL2          1 ucer2   
     100 H100         1.3674    -0.9455    -7.4453 HAL2          1 ucer2   
     101 H101        -0.4600    -0.9619    -7.3745 HAL2          1 ucer2   
     102 C102         0.3938     0.5432    -8.5582 CTL2          1 ucer2   
     103 H103        -0.5265     1.1438    -8.7220 HAL2          1 ucer2   
     104 H104         1.2848     1.1613    -8.7940 HAL2          1 ucer2   
     105 C105         0.3562    -0.4332    -9.7343 CTL2          1 ucer2   
     106 H106         1.2558    -1.0536    -9.9346 HAL2          1 ucer2   
     107 H107        -0.5448    -1.0734    -9.8642 HAL2          1 ucer2   
     108 C108         0.2977     0.4072   -11.0127 CTL2          1 ucer2   
     109 H109        -0.6104     1.0149   -11.2097 HAL2          1 ucer2   
     110 H110         1.1757     1.0325   -11.2815 HAL2          1 ucer2   
     111 C111         0.2588    -0.5343   -12.2188 CTL2          1 ucer2   
     112 H112         1.1473    -1.1693   -12.4224 HAL2          1 ucer2   
     113 H113        -0.6294    -1.1852   -12.3500 HAL2          1 ucer2   
     114 C114         0.2006     0.2640   -13.5246 CTL2          1 ucer2   
     115 H115        -0.7020     0.8901   -13.6999 HAL2          1 ucer2   
     116 H116         1.0732     0.9080   -13.7691 HAL2          1 ucer2   
     117 C117         0.1610    -0.6409   -14.7548 CTL2          1 ucer2   
     118 H118         1.0503    -1.2894   -14.9120 HAL2          1 ucer2   
     119 H119        -0.7257    -1.3052   -14.8436 HAL2          1 ucer2   
     120 C120         0.1020     0.1327   -16.0709 CTL2          1 ucer2   
     121 H121        -0.8020     0.7703   -16.1893 HAL2          1 ucer2   
     122 H122         0.9781     0.7877   -16.2598 HAL2          1 ucer2   
     123 C123         0.0603    -0.7591   -17.3143 CTL2          1 ucer2   
     124 H124         0.9575    -1.4114   -17.3939 HAL2          1 ucer2   
     125 H125        -0.8230    -1.4330   -17.3206 HAL2          1 ucer2   
     126 C126         0.0000    -0.0000   -18.6402 CTL3          1 ucer2   
     127 H127        -0.0310    -0.6454   -19.5426 HAL3          1 ucer2   
     128 H128        -0.8996     0.6498   -18.6890 HAL3          1 ucer2   
     129 H129         0.8836     0.6691   -18.7444 HAL3          1 ucer2   
@<TRIPOS>BOND
       1       10        8 1
       2       50       53 1
       3       15       14 1
       4      102      105 1
       5       47       50 1
       6       47       49 1
       7       71       74 1
       8      108      111 1
       9       84       85 1
      10       71       72 1
      11       43       41 1
      12       20       21 1
      13       46       44 1
      14       90       93 1
      15      117      119 1
      16       86       88 1
      17        3        4 1
      18        5        7 1
      19      102      103 1
      20       93       95 1
      21      105      106 1
      22       26       27 1
      23       30       29 1
      24       86       87 1
      25       26       28 1
      26      114      116 1
      27       48       47 1
      28       77       79 1
      29      105      108 1
      30      117      118 1
      31       23       26 1
      32       31       29 1
      33        3        1 1
      34       75       76 1
      35       53       56 1
      36      120      121 1
      37       35       32 1
      38        1       75 1
      39      114      117 1
      40       59       60 1
      41       53       54 1
      42       20       22 1
      43       96       99 1
      44      126      127 1
      45       16       14 1
      46       90       92 1
      47       99      102 1
      48      120      123 1
      49       44       41 1
      50       62       63 1
      51      111      114 1
      52       82       86 1
      53       77       78 1
      54       32       29 1
      55        1        2 1
      56      105      107 1
      57       99      101 1
      58       23       25 1
      59       75       82 1
      60      123      125 1
      61       56       57 1
      62       18       17 1
      63       35       38 1
      64       35       37 1
      65      111      112 1
      66       39       38 1
      67       65       66 1
      68       59       62 1
      69       17       14 1
      70        3        5 1
      71       20       23 1
      72       71       73 1
      73       11        8 1
      74       33       32 1
      75       90       91 1
      76       40       38 1
      77       65       68 1
      78       68       69 1
      79       45       44 1
      80       59       61 1
      81       68       71 1
      82       56       58 1
      83       26       29 1
      84      111      113 1
      85       14       11 1
      86       56       59 1
      87       88       90 1
      88       50       52 1
      89       80       81 1
      90       17       20 1
      91       12       11 1
      92       68       70 1
      93      117      120 1
      94        5        6 1
      95       96       97 1
      96       62       64 1
      97       93       94 1
      98       88       89 1
      99      126      128 1
     100       82       83 1
     101      108      109 1
     102       77       80 1
     103       13       11 1
     104       65       67 1
     105       17       19 1
     106      123      124 1
     107      114      115 1
     108       53       55 1
     109       75       77 1
     110      102      104 1
     111       47       44 1
     112       42       41 1
     113       35       36 1
     114       96       98 1
     115       62       65 1
     116       93       96 1
     117       82       84 1
     118      126      129 1
     119      108      110 1
     120       99      100 1
     121        9        8 1
     122       23       24 1
     123       34       32 1
     124      120      122 1
     125      123      126 1
     126        5        8 1
     127       50       51 1
     128       41       38 1
@<TRIPOS>SUBSTRUCTURE
       1 ucer2           1 RESIDUE    0 **** ROOT      0
