@<TRIPOS>MOLECULE
ecer2
105 104 1 0 1
SMALL
NO_CHARGES
@<TRIPOS>CRYSIN
   12.2331     9.2925    28.4098    90.0000    90.0000    90.0000  1  1
@<TRIPOS>ATOM
       1 NH1         -2.4577    -0.3390    -0.0717 NH1           1 ecer2   
       2 HN1         -2.7263    -0.8290     0.7667 HN1           1 ecer2   
       3 CLN         -3.1798    -0.6319    -1.2002 CLN           1 ecer2   
       4 OBL         -4.0456    -1.5004    -1.2063 OBL           1 ecer2   
       5 CTL2        -2.8068     0.0720    -2.5189 CTL2          1 ecer2   
       6 HAL2        -1.7264    -0.0531    -2.6894 HAL2          1 ecer2   
       7 HAL2        -3.0276     1.1535    -2.4177 HAL2          1 ecer2   
       8 CTL2        -3.4729    -0.4836    -3.7968 CTL2          1 ecer2   
       9 HAL2        -3.1908    -1.5538    -3.9248 HAL2          1 ecer2   
      10 HAL2        -4.5807    -0.4375    -3.6977 HAL2          1 ecer2   
      11 CTL2        -3.0509     0.2975    -5.0434 CTL2          1 ecer2   
      12 HAL2        -3.3924     1.3541    -4.9588 HAL2          1 ecer2   
      13 HAL2        -1.9422     0.3069    -5.1176 HAL2          1 ecer2   
      14 CTL2        -3.6097    -0.3086    -6.3276 CTL2          1 ecer2   
      15 HAL2        -3.2728    -1.3671    -6.4092 HAL2          1 ecer2   
      16 HAL2        -4.7216    -0.3043    -6.2816 HAL2          1 ecer2   
      17 CTL2        -3.1578     0.4457    -7.5739 CTL2          1 ecer2   
      18 HAL2        -3.4723     1.5116    -7.5053 HAL2          1 ecer2   
      19 HAL2        -2.0488     0.4237    -7.6254 HAL2          1 ecer2   
      20 CTL2        -3.7255    -0.1738    -8.8445 CTL2          1 ecer2   
      21 HAL2        -3.3868    -1.2317    -8.9178 HAL2          1 ecer2   
      22 HAL2        -4.8363    -0.1702    -8.7887 HAL2          1 ecer2   
      23 CTL2        -3.2897     0.5763   -10.0945 CTL2          1 ecer2   
      24 HAL2        -3.6174     1.6382   -10.0288 HAL2          1 ecer2   
      25 HAL2        -2.1807     0.5689   -10.1467 HAL2          1 ecer2   
      26 CTL2        -3.8554    -0.0547   -11.3608 CTL2          1 ecer2   
      27 HAL2        -3.5227    -1.1157   -11.4216 HAL2          1 ecer2   
      28 HAL2        -4.9667    -0.0445   -11.3084 HAL2          1 ecer2   
      29 CTL2        -3.4046     0.6826   -12.6159 CTL2          1 ecer2   
      30 HAL2        -3.7147     1.7500   -12.5523 HAL2          1 ecer2   
      31 HAL2        -2.2949     0.6570   -12.6591 HAL2          1 ecer2   
      32 CTL2        -3.9719     0.0604   -13.8886 CTL2          1 ecer2   
      33 HAL2        -3.6612    -1.0076   -13.9397 HAL2          1 ecer2   
      34 HAL2        -5.0828     0.0940   -13.8428 HAL2          1 ecer2   
      35 CTL2        -3.4935     0.7840   -15.1448 CTL2          1 ecer2   
      36 HAL2        -3.7809     1.8577   -15.0852 HAL2          1 ecer2   
      37 HAL2        -2.3842     0.7358   -15.1724 HAL2          1 ecer2   
      38 CTL2        -4.0566     0.1708   -16.4272 CTL2          1 ecer2   
      39 HAL2        -3.7712    -0.9043   -16.4655 HAL2          1 ecer2   
      40 HAL2        -5.1668     0.2310   -16.3952 HAL2          1 ecer2   
      41 CTL2        -3.5458     0.8703   -17.6903 CTL2          1 ecer2   
      42 HAL2        -3.8178     1.9487   -17.6443 HAL2          1 ecer2   
      43 HAL2        -2.4373     0.8070   -17.6965 HAL2          1 ecer2   
      44 CTL2        -4.1003     0.2530   -18.9808 CTL2          1 ecer2   
      45 HAL2        -3.8522    -0.8324   -19.0001 HAL2          1 ecer2   
      46 HAL2        -5.2090     0.3464   -18.9638 HAL2          1 ecer2   
      47 CTL3        -3.5559     0.9156   -20.2518 CTL3          1 ecer2   
      48 HAL3        -3.7201     2.0150   -20.2251 HAL3          1 ecer2   
      49 HAL3        -2.4663     0.7277   -20.3566 HAL3          1 ecer2   
      50 HAL3        -4.0644     0.5053   -21.1505 HAL3          1 ecer2   
      51 CTL1        -1.3934     0.7008     0.0875 CTL1          1 ecer2   
      52 HAL1        -1.5368     1.4458    -0.7295 HAL1          1 ecer2   
      53 CTL2        -1.6797     1.5210     1.3867 CTL2          1 ecer2   
      54 HAL2        -1.7981     0.8399     2.2593 HAL2          1 ecer2   
      55 HAL2        -0.8105     2.1900     1.5848 HAL2          1 ecer2   
      56 OHL         -2.8383     2.3435     1.2246 OHL           1 ecer2   
      57 HOL         -3.1195     2.6206     2.1012 HOL           1 ecer2   
      58 CTL1         0.0000     0.0000     0.0000 CTL1          1 ecer2   
      59 HAL1        -0.1152    -1.1000    -0.1451 HAL1          1 ecer2   
      60 OHL          0.8236     0.1954     1.1479 OHL           1 ecer2   
      61 HOL          1.6495    -0.2660     0.9745 HOL           1 ecer2   
      62 CEL1         0.6847     0.5675    -1.2303 CEL1          1 ecer2   
      63 HEL1         0.8326     1.6597    -1.2255 HEL1          1 ecer2   
      64 CEL1         0.8098    -0.0926    -2.3937 CEL1          1 ecer2   
      65 HEL1         0.4014    -1.1132    -2.4806 HEL1          1 ecer2   
      66 CTL2         1.0359     0.6475    -3.6813 CTL2          1 ecer2   
      67 HAL2         0.2533     1.4360    -3.7799 HAL2          1 ecer2   
      68 HAL2         2.0241     1.1550    -3.7087 HAL2          1 ecer2   
      69 CTL2         0.8658    -0.2800    -4.8888 CTL2          1 ecer2   
      70 HAL2         1.7248    -0.9860    -4.9220 HAL2          1 ecer2   
      71 HAL2        -0.0615    -0.8848    -4.7608 HAL2          1 ecer2   
      72 CTL2         0.7638     0.4918    -6.2107 CTL2          1 ecer2   
      73 HAL2        -0.1242     1.1634    -6.1753 HAL2          1 ecer2   
      74 HAL2         1.6649     1.1331    -6.3300 HAL2          1 ecer2   
      75 CTL2         0.6321    -0.4185    -7.4344 CTL2          1 ecer2   
      76 HAL2         1.4970    -1.1167    -7.4677 HAL2          1 ecer2   
      77 HAL2        -0.2940    -1.0313    -7.3398 HAL2          1 ecer2   
      78 CTL2         0.5881     0.3768    -8.7437 CTL2          1 ecer2   
      79 HAL2        -0.2490     1.1103    -8.7116 HAL2          1 ecer2   
      80 HAL2         1.5342     0.9543    -8.8442 HAL2          1 ecer2   
      81 CTL2         0.4119    -0.5140    -9.9740 CTL2          1 ecer2   
      82 HAL2         1.2278    -1.2699   -10.0001 HAL2          1 ecer2   
      83 HAL2        -0.5549    -1.0618    -9.8906 HAL2          1 ecer2   
      84 CTL2         0.4355     0.2829   -11.2819 CTL2          1 ecer2   
      85 HAL2        -0.3550     1.0658   -11.2604 HAL2          1 ecer2   
      86 HAL2         1.4161     0.8015   -11.3718 HAL2          1 ecer2   
      87 CTL2         0.2198    -0.6050   -12.5093 CTL2          1 ecer2   
      88 HAL2         0.9951    -1.4036   -12.5212 HAL2          1 ecer2   
      89 HAL2        -0.7751    -1.0993   -12.4281 HAL2          1 ecer2   
      90 CTL2         0.2951     0.1755   -13.8253 CTL2          1 ecer2   
      91 HAL2        -0.4531     0.9991   -13.8126 HAL2          1 ecer2   
      92 HAL2         1.3018     0.6416   -13.9105 HAL2          1 ecer2   
      93 CTL2         0.0403    -0.7105   -15.0491 CTL2          1 ecer2   
      94 HAL2         0.7717    -1.5490   -15.0495 HAL2          1 ecer2   
      95 HAL2        -0.9799    -1.1503   -14.9681 HAL2          1 ecer2   
      96 CTL2         0.1624     0.0584   -16.3703 CTL2          1 ecer2   
      97 HAL2        -0.5412     0.9201   -16.3591 HAL2          1 ecer2   
      98 HAL2         1.1913     0.4729   -16.4532 HAL2          1 ecer2   
      99 CTL2        -0.1333    -0.8043   -17.6029 CTL2          1 ecer2   
     100 HAL2         0.5634    -1.6719   -17.6143 HAL2          1 ecer2   
     101 HAL2        -1.1677    -1.2081   -17.5141 HAL2          1 ecer2   
     102 CTL3        -0.0000     0.0000   -18.9932 CTL3          1 ecer2   
     103 HAL3        -0.2663    -0.6083   -19.9045 HAL3          1 ecer2   
     104 HAL3        -0.6593     0.9125   -19.0574 HAL3          1 ecer2   
     105 HAL3         1.0358     0.3938   -19.1990 HAL3          1 ecer2   
@<TRIPOS>BOND
       1       44       47 1
       2       62       58 1
       3        8       10 1
       4        1       51 1
       5       53       56 1
       6       11       14 1
       7       26       27 1
       8       29       32 1
       9        8       11 1
      10       60       61 1
      11       66       68 1
      12       41       42 1
      13       20       21 1
      14       14       17 1
      15       32       33 1
      16       81       83 1
      17       69       71 1
      18       93       95 1
      19       78       80 1
      20       53       55 1
      21       87       84 1
      22       47       49 1
      23       26       28 1
      24        3        4 1
      25       64       66 1
      26        1        3 1
      27        5        7 1
      28       75       78 1
      29       20       22 1
      30       11       13 1
      31       81       84 1
      32       78       81 1
      33       26       29 1
      34       29       31 1
      35       51       52 1
      36       58       59 1
      37       44       46 1
      38        5        8 1
      39       64       65 1
      40       60       58 1
      41       69       72 1
      42       90       91 1
      43       23       24 1
      44       20       23 1
      45       72       75 1
      46       96       97 1
      47       17       18 1
      48       38       39 1
      49       41       43 1
      50       32       34 1
      51       53       54 1
      52        1        2 1
      53       62       64 1
      54       23       26 1
      55       44       45 1
      56       66       67 1
      57       87       89 1
      58       51       58 1
      59       14       15 1
      60       11       12 1
      61       99      100 1
      62       47       48 1
      63       41       44 1
      64       99      102 1
      65      102      103 1
      66       32       35 1
      67        5        6 1
      68       78       79 1
      69       75       76 1
      70       90       92 1
      71       85       84 1
      72       72       74 1
      73       47       50 1
      74       14       16 1
      75       37       35 1
      76      102      105 1
      77        3        5 1
      78       38       40 1
      79       90       93 1
      80       72       73 1
      81       23       25 1
      82       93       96 1
      83       86       84 1
      84      102      104 1
      85       96       98 1
      86       93       94 1
      87       29       30 1
      88        8        9 1
      89       66       69 1
      90       75       77 1
      91       81       82 1
      92       56       57 1
      93       38       35 1
      94       99      101 1
      95       51       53 1
      96       36       35 1
      97       87       88 1
      98       38       41 1
      99       69       70 1
     100       96       99 1
     101       17       20 1
     102       62       63 1
     103       87       90 1
     104       17       19 1
@<TRIPOS>SUBSTRUCTURE
       1 ecer2           1 RESIDUE    0 **** ROOT      0
