@<TRIPOS>MOLECULE
ecer2
105 104 1 0 1
SMALL
NO_CHARGES
@<TRIPOS>CRYSIN
   12.2331     9.2925    28.4098    90.0000    90.0000    90.0000  1  1
@<TRIPOS>ATOM
       1 N1          -2.4577    -0.3390    -0.0717 NH1           1 ecer2   
       2 H2          -2.7263    -0.8290     0.7667 HN1           1 ecer2   
       3 C3          -3.1798    -0.6319    -1.2002 CLN           1 ecer2   
       4 O4          -4.0456    -1.5004    -1.2063 OBL           1 ecer2   
       5 C5          -2.8068     0.0720    -2.5189 CTL2          1 ecer2   
       6 H6          -1.7264    -0.0531    -2.6894 HAL2          1 ecer2   
       7 H7          -3.0276     1.1535    -2.4177 HAL2          1 ecer2   
       8 C8          -3.4729    -0.4836    -3.7968 CTL2          1 ecer2   
       9 H9          -3.1908    -1.5538    -3.9248 HAL2          1 ecer2   
      10 H10         -4.5807    -0.4375    -3.6977 HAL2          1 ecer2   
      11 C11         -3.0509     0.2975    -5.0434 CTL2          1 ecer2   
      12 H12         -3.3924     1.3541    -4.9588 HAL2          1 ecer2   
      13 H13         -1.9422     0.3069    -5.1176 HAL2          1 ecer2   
      14 C14         -3.6097    -0.3086    -6.3276 CTL2          1 ecer2   
      15 H15         -3.2728    -1.3671    -6.4092 HAL2          1 ecer2   
      16 H16         -4.7216    -0.3043    -6.2816 HAL2          1 ecer2   
      17 C17         -3.1578     0.4457    -7.5739 CTL2          1 ecer2   
      18 H18         -3.4723     1.5116    -7.5053 HAL2          1 ecer2   
      19 H19         -2.0488     0.4237    -7.6254 HAL2          1 ecer2   
      20 C20         -3.7255    -0.1738    -8.8445 CTL2          1 ecer2   
      21 H21         -3.3868    -1.2317    -8.9178 HAL2          1 ecer2   
      22 H22         -4.8363    -0.1702    -8.7887 HAL2          1 ecer2   
      23 C23         -3.2897     0.5763   -10.0945 CTL2          1 ecer2   
      24 H24         -3.6174     1.6382   -10.0288 HAL2          1 ecer2   
      25 H25         -2.1807     0.5689   -10.1467 HAL2          1 ecer2   
      26 C26         -3.8554    -0.0547   -11.3608 CTL2          1 ecer2   
      27 H27         -3.5227    -1.1157   -11.4216 HAL2          1 ecer2   
      28 H28         -4.9667    -0.0445   -11.3084 HAL2          1 ecer2   
      29 C29         -3.4046     0.6826   -12.6159 CTL2          1 ecer2   
      30 H30         -3.7147     1.7500   -12.5523 HAL2          1 ecer2   
      31 H31         -2.2949     0.6570   -12.6591 HAL2          1 ecer2   
      32 C32         -3.9719     0.0604   -13.8886 CTL2          1 ecer2   
      33 H33         -3.6612    -1.0076   -13.9397 HAL2          1 ecer2   
      34 H34         -5.0828     0.0940   -13.8428 HAL2          1 ecer2   
      35 C35         -3.4935     0.7840   -15.1448 CTL2          1 ecer2   
      36 H36         -3.7809     1.8577   -15.0852 HAL2          1 ecer2   
      37 H37         -2.3842     0.7358   -15.1724 HAL2          1 ecer2   
      38 C38         -4.0566     0.1708   -16.4272 CTL2          1 ecer2   
      39 H39         -3.7712    -0.9043   -16.4655 HAL2          1 ecer2   
      40 H40         -5.1668     0.2310   -16.3952 HAL2          1 ecer2   
      41 C41         -3.5458     0.8703   -17.6903 CTL2          1 ecer2   
      42 H42         -3.8178     1.9487   -17.6443 HAL2          1 ecer2   
      43 H43         -2.4373     0.8070   -17.6965 HAL2          1 ecer2   
      44 C44         -4.1003     0.2530   -18.9808 CTL2          1 ecer2   
      45 H45         -3.8522    -0.8324   -19.0001 HAL2          1 ecer2   
      46 H46         -5.2090     0.3464   -18.9638 HAL2          1 ecer2   
      47 C47         -3.5559     0.9156   -20.2518 CTL3          1 ecer2   
      48 H48         -3.7201     2.0150   -20.2251 HAL3          1 ecer2   
      49 H49         -2.4663     0.7277   -20.3566 HAL3          1 ecer2   
      50 H50         -4.0644     0.5053   -21.1505 HAL3          1 ecer2   
      51 C51         -1.3934     0.7008     0.0875 CTL1          1 ecer2   
      52 H52         -1.5368     1.4458    -0.7295 HAL1          1 ecer2   
      53 C53         -1.6797     1.5210     1.3867 CTL2          1 ecer2   
      54 H54         -1.7981     0.8399     2.2593 HAL2          1 ecer2   
      55 H55         -0.8105     2.1900     1.5848 HAL2          1 ecer2   
      56 O56         -2.8383     2.3435     1.2246 OHL           1 ecer2   
      57 H57         -3.1195     2.6206     2.1012 HOL           1 ecer2   
      58 C58          0.0000     0.0000     0.0000 CTL1          1 ecer2   
      59 H59         -0.1152    -1.1000    -0.1451 HAL1          1 ecer2   
      60 O60          0.8236     0.1954     1.1479 OHL           1 ecer2   
      61 H61          1.6495    -0.2660     0.9745 HOL           1 ecer2   
      62 C62          0.6847     0.5675    -1.2303 CEL1          1 ecer2   
      63 H63          0.8326     1.6597    -1.2255 HEL1          1 ecer2   
      64 C64          0.8098    -0.0926    -2.3937 CEL1          1 ecer2   
      65 H65          0.4014    -1.1132    -2.4806 HEL1          1 ecer2   
      66 C66          1.0359     0.6475    -3.6813 CTL2          1 ecer2   
      67 H67          0.2533     1.4360    -3.7799 HAL2          1 ecer2   
      68 H68          2.0241     1.1550    -3.7087 HAL2          1 ecer2   
      69 C69          0.8658    -0.2800    -4.8888 CTL2          1 ecer2   
      70 H70          1.7248    -0.9860    -4.9220 HAL2          1 ecer2   
      71 H71         -0.0615    -0.8848    -4.7608 HAL2          1 ecer2   
      72 C72          0.7638     0.4918    -6.2107 CTL2          1 ecer2   
      73 H73         -0.1242     1.1634    -6.1753 HAL2          1 ecer2   
      74 H74          1.6649     1.1331    -6.3300 HAL2          1 ecer2   
      75 C75          0.6321    -0.4185    -7.4344 CTL2          1 ecer2   
      76 H76          1.4970    -1.1167    -7.4677 HAL2          1 ecer2   
      77 H77         -0.2940    -1.0313    -7.3398 HAL2          1 ecer2   
      78 C78          0.5881     0.3768    -8.7437 CTL2          1 ecer2   
      79 H79         -0.2490     1.1103    -8.7116 HAL2          1 ecer2   
      80 H80          1.5342     0.9543    -8.8442 HAL2          1 ecer2   
      81 C81          0.4119    -0.5140    -9.9740 CTL2          1 ecer2   
      82 H82          1.2278    -1.2699   -10.0001 HAL2          1 ecer2   
      83 H83         -0.5549    -1.0618    -9.8906 HAL2          1 ecer2   
      84 C84          0.4355     0.2829   -11.2819 CTL2          1 ecer2   
      85 H85         -0.3550     1.0658   -11.2604 HAL2          1 ecer2   
      86 H86          1.4161     0.8015   -11.3718 HAL2          1 ecer2   
      87 C87          0.2198    -0.6050   -12.5093 CTL2          1 ecer2   
      88 H88          0.9951    -1.4036   -12.5212 HAL2          1 ecer2   
      89 H89         -0.7751    -1.0993   -12.4281 HAL2          1 ecer2   
      90 C90          0.2951     0.1755   -13.8253 CTL2          1 ecer2   
      91 H91         -0.4531     0.9991   -13.8126 HAL2          1 ecer2   
      92 H92          1.3018     0.6416   -13.9105 HAL2          1 ecer2   
      93 C93          0.0403    -0.7105   -15.0491 CTL2          1 ecer2   
      94 H94          0.7717    -1.5490   -15.0495 HAL2          1 ecer2   
      95 H95         -0.9799    -1.1503   -14.9681 HAL2          1 ecer2   
      96 C96          0.1624     0.0584   -16.3703 CTL2          1 ecer2   
      97 H97         -0.5412     0.9201   -16.3591 HAL2          1 ecer2   
      98 H98          1.1913     0.4729   -16.4532 HAL2          1 ecer2   
      99 C99         -0.1333    -0.8043   -17.6029 CTL2          1 ecer2   
     100 H100         0.5634    -1.6719   -17.6143 HAL2          1 ecer2   
     101 H101        -1.1677    -1.2081   -17.5141 HAL2          1 ecer2   
     102 C102        -0.0000     0.0000   -18.9932 CTL3          1 ecer2   
     103 H103        -0.2663    -0.6083   -19.9045 HAL3          1 ecer2   
     104 H104        -0.6593     0.9125   -19.0574 HAL3          1 ecer2   
     105 H105         1.0358     0.3938   -19.1990 HAL3          1 ecer2   
@<TRIPOS>BOND
       1       53       56 1
       2       19       17 1
       3       43       41 1
       4       78       81 1
       5       29       30 1
       6       84       87 1
       7        1       51 1
       8       52       51 1
       9       66       69 1
      10       93       95 1
      11       44       45 1
      12       62       64 1
      13       58       62 1
      14       78       79 1
      15       69       71 1
      16        3        1 1
      17       38       41 1
      18       81       82 1
      19       29       32 1
      20       58       60 1
      21       17       14 1
      22       38       40 1
      23       58       59 1
      24       53       51 1
      25       60       61 1
      26       90       92 1
      27       62       63 1
      28       81       84 1
      29       20       17 1
      30       93       94 1
      31       48       47 1
      32        8        9 1
      33        5        7 1
      34       11       12 1
      35       96       97 1
      36       90       93 1
      37       29       31 1
      38       72       75 1
      39      102      103 1
      40       35       36 1
      41       26       28 1
      42       66       68 1
      43       21       20 1
      44       75       78 1
      45       96       99 1
      46       87       90 1
      47       44       47 1
      48       81       83 1
      49       75       77 1
      50       55       53 1
      51       99      101 1
      52       32       34 1
      53       32       35 1
      54       26       23 1
      55       87       88 1
      56       23       20 1
      57       26       29 1
      58       11       13 1
      59       49       47 1
      60       35       38 1
      61       16       14 1
      62       66       67 1
      63       51       58 1
      64       32       33 1
      65       54       53 1
      66        3        4 1
      67       24       23 1
      68       50       47 1
      69       27       26 1
      70       56       57 1
      71       87       89 1
      72       64       66 1
      73        5        8 1
      74        8       10 1
      75       44       41 1
      76       93       96 1
      77       72       73 1
      78       64       65 1
      79       69       70 1
      80      102      104 1
      81       84       85 1
      82       11       14 1
      83       42       41 1
      84       15       14 1
      85        1        2 1
      86       44       46 1
      87       99      100 1
      88       18       17 1
      89       90       91 1
      90        8       11 1
      91       78       80 1
      92       72       74 1
      93       69       72 1
      94       38       39 1
      95        3        5 1
      96      102      105 1
      97       84       86 1
      98        5        6 1
      99       75       76 1
     100       25       23 1
     101       96       98 1
     102       22       20 1
     103       99      102 1
     104       35       37 1
@<TRIPOS>SUBSTRUCTURE
       1 ecer2           1 RESIDUE    0 **** ROOT      0
