@<TRIPOS>MOLECULE
ecer2
105 104 1 0 1
SMALL
USER_CHARGES
@<TRIPOS>CRYSIN
   12.2331     9.2925    28.4098    90.0000    90.0000    90.0000  1  1
@<TRIPOS>ATOM
       1 NH1         -2.4577    -0.3390    -0.0717 NH1           1 ecer2     -0.530000
       2 HN1         -2.7263    -0.8290     0.7667 HN1           1 ecer2      0.260000
       3 CLN         -3.1798    -0.6319    -1.2002 CLN           1 ecer2      0.580000
       4 OBL         -4.0456    -1.5004    -1.2063 OBL           1 ecer2     -0.530000
       5 CTL2        -2.8068     0.0720    -2.5189 CTL2          1 ecer2     -0.260000
       6 HAL2        -1.7264    -0.0531    -2.6894 HAL2          1 ecer2      0.130000
       7 HAL2        -3.0276     1.1535    -2.4177 HAL2          1 ecer2      0.130000
       8 CTL2        -3.4729    -0.4836    -3.7968 CTL2          1 ecer2     -0.180000
       9 HAL2        -3.1908    -1.5538    -3.9248 HAL2          1 ecer2      0.090000
      10 HAL2        -4.5807    -0.4375    -3.6977 HAL2          1 ecer2      0.090000
      11 CTL2        -3.0509     0.2975    -5.0434 CTL2          1 ecer2     -0.180000
      12 HAL2        -3.3924     1.3541    -4.9588 HAL2          1 ecer2      0.090000
      13 HAL2        -1.9422     0.3069    -5.1176 HAL2          1 ecer2      0.090000
      14 CTL2        -3.6097    -0.3086    -6.3276 CTL2          1 ecer2     -0.180000
      15 HAL2        -3.2728    -1.3671    -6.4092 HAL2          1 ecer2      0.090000
      16 HAL2        -4.7216    -0.3043    -6.2816 HAL2          1 ecer2      0.090000
      17 CTL2        -3.1578     0.4457    -7.5739 CTL2          1 ecer2     -0.180000
      18 HAL2        -3.4723     1.5116    -7.5053 HAL2          1 ecer2      0.090000
      19 HAL2        -2.0488     0.4237    -7.6254 HAL2          1 ecer2      0.090000
      20 CTL2        -3.7255    -0.1738    -8.8445 CTL2          1 ecer2     -0.180000
      21 HAL2        -3.3868    -1.2317    -8.9178 HAL2          1 ecer2      0.090000
      22 HAL2        -4.8363    -0.1702    -8.7887 HAL2          1 ecer2      0.090000
      23 CTL2        -3.2897     0.5763   -10.0945 CTL2          1 ecer2     -0.180000
      24 HAL2        -3.6174     1.6382   -10.0288 HAL2          1 ecer2      0.090000
      25 HAL2        -2.1807     0.5689   -10.1467 HAL2          1 ecer2      0.090000
      26 CTL2        -3.8554    -0.0547   -11.3608 CTL2          1 ecer2     -0.180000
      27 HAL2        -3.5227    -1.1157   -11.4216 HAL2          1 ecer2      0.090000
      28 HAL2        -4.9667    -0.0445   -11.3084 HAL2          1 ecer2      0.090000
      29 CTL2        -3.4046     0.6826   -12.6159 CTL2          1 ecer2     -0.180000
      30 HAL2        -3.7147     1.7500   -12.5523 HAL2          1 ecer2      0.090000
      31 HAL2        -2.2949     0.6570   -12.6591 HAL2          1 ecer2      0.090000
      32 CTL2        -3.9719     0.0604   -13.8886 CTL2          1 ecer2     -0.180000
      33 HAL2        -3.6612    -1.0076   -13.9397 HAL2          1 ecer2      0.090000
      34 HAL2        -5.0828     0.0940   -13.8428 HAL2          1 ecer2      0.090000
      35 CTL2        -3.4935     0.7840   -15.1448 CTL2          1 ecer2     -0.180000
      36 HAL2        -3.7809     1.8577   -15.0852 HAL2          1 ecer2      0.090000
      37 HAL2        -2.3842     0.7358   -15.1724 HAL2          1 ecer2      0.090000
      38 CTL2        -4.0566     0.1708   -16.4272 CTL2          1 ecer2     -0.180000
      39 HAL2        -3.7712    -0.9043   -16.4655 HAL2          1 ecer2      0.090000
      40 HAL2        -5.1668     0.2310   -16.3952 HAL2          1 ecer2      0.090000
      41 CTL2        -3.5458     0.8703   -17.6903 CTL2          1 ecer2     -0.180000
      42 HAL2        -3.8178     1.9487   -17.6443 HAL2          1 ecer2      0.090000
      43 HAL2        -2.4373     0.8070   -17.6965 HAL2          1 ecer2      0.090000
      44 CTL2        -4.1003     0.2530   -18.9808 CTL2          1 ecer2     -0.180000
      45 HAL2        -3.8522    -0.8324   -19.0001 HAL2          1 ecer2      0.090000
      46 HAL2        -5.2090     0.3464   -18.9638 HAL2          1 ecer2      0.090000
      47 CTL3        -3.5559     0.9156   -20.2518 CTL3          1 ecer2     -0.300000
      48 HAL3        -3.7201     2.0150   -20.2251 HAL3          1 ecer2      0.100000
      49 HAL3        -2.4663     0.7277   -20.3566 HAL3          1 ecer2      0.100000
      50 HAL3        -4.0644     0.5053   -21.1505 HAL3          1 ecer2      0.100000
      51 CTL1        -1.3934     0.7008     0.0875 CTL1          1 ecer2      0.030000
      52 HAL1        -1.5368     1.4458    -0.7295 HAL1          1 ecer2      0.120000
      53 CTL2        -1.6797     1.5210     1.3867 CTL2          1 ecer2      0.060000
      54 HAL2        -1.7981     0.8399     2.2593 HAL2          1 ecer2      0.105000
      55 HAL2        -0.8105     2.1900     1.5848 HAL2          1 ecer2      0.105000
      56 OHL         -2.8383     2.3435     1.2246 OHL           1 ecer2     -0.560000
      57 HOL         -3.1195     2.6206     2.1012 HOL           1 ecer2      0.340000
      58 CTL1         0.0000     0.0000     0.0000 CTL1          1 ecer2      0.150000
      59 HAL1        -0.1152    -1.1000    -0.1451 HAL1          1 ecer2      0.090000
      60 OHL          0.8236     0.1954     1.1479 OHL           1 ecer2     -0.560000
      61 HOL          1.6495    -0.2660     0.9745 HOL           1 ecer2      0.340000
      62 CEL1         0.6847     0.5675    -1.2303 CEL1          1 ecer2     -0.090000
      63 HEL1         0.8326     1.6597    -1.2255 HEL1          1 ecer2      0.090000
      64 CEL1         0.8098    -0.0926    -2.3937 CEL1          1 ecer2     -0.090000
      65 HEL1         0.4014    -1.1132    -2.4806 HEL1          1 ecer2      0.090000
      66 CTL2         1.0359     0.6475    -3.6813 CTL2          1 ecer2     -0.180000
      67 HAL2         0.2533     1.4360    -3.7799 HAL2          1 ecer2      0.090000
      68 HAL2         2.0241     1.1550    -3.7087 HAL2          1 ecer2      0.090000
      69 CTL2         0.8658    -0.2800    -4.8888 CTL2          1 ecer2     -0.180000
      70 HAL2         1.7248    -0.9860    -4.9220 HAL2          1 ecer2      0.090000
      71 HAL2        -0.0615    -0.8848    -4.7608 HAL2          1 ecer2      0.090000
      72 CTL2         0.7638     0.4918    -6.2107 CTL2          1 ecer2     -0.180000
      73 HAL2        -0.1242     1.1634    -6.1753 HAL2          1 ecer2      0.090000
      74 HAL2         1.6649     1.1331    -6.3300 HAL2          1 ecer2      0.090000
      75 CTL2         0.6321    -0.4185    -7.4344 CTL2          1 ecer2     -0.180000
      76 HAL2         1.4970    -1.1167    -7.4677 HAL2          1 ecer2      0.090000
      77 HAL2        -0.2940    -1.0313    -7.3398 HAL2          1 ecer2      0.090000
      78 CTL2         0.5881     0.3768    -8.7437 CTL2          1 ecer2     -0.180000
      79 HAL2        -0.2490     1.1103    -8.7116 HAL2          1 ecer2      0.090000
      80 HAL2         1.5342     0.9543    -8.8442 HAL2          1 ecer2      0.090000
      81 CTL2         0.4119    -0.5140    -9.9740 CTL2          1 ecer2     -0.180000
      82 HAL2         1.2278    -1.2699   -10.0001 HAL2          1 ecer2      0.090000
      83 HAL2        -0.5549    -1.0618    -9.8906 HAL2          1 ecer2      0.090000
      84 CTL2         0.4355     0.2829   -11.2819 CTL2          1 ecer2     -0.180000
      85 HAL2        -0.3550     1.0658   -11.2604 HAL2          1 ecer2      0.090000
      86 HAL2         1.4161     0.8015   -11.3718 HAL2          1 ecer2      0.090000
      87 CTL2         0.2198    -0.6050   -12.5093 CTL2          1 ecer2     -0.180000
      88 HAL2         0.9951    -1.4036   -12.5212 HAL2          1 ecer2      0.090000
      89 HAL2        -0.7751    -1.0993   -12.4281 HAL2          1 ecer2      0.090000
      90 CTL2         0.2951     0.1755   -13.8253 CTL2          1 ecer2     -0.180000
      91 HAL2        -0.4531     0.9991   -13.8126 HAL2          1 ecer2      0.090000
      92 HAL2         1.3018     0.6416   -13.9105 HAL2          1 ecer2      0.090000
      93 CTL2         0.0403    -0.7105   -15.0491 CTL2          1 ecer2     -0.180000
      94 HAL2         0.7717    -1.5490   -15.0495 HAL2          1 ecer2      0.090000
      95 HAL2        -0.9799    -1.1503   -14.9681 HAL2          1 ecer2      0.090000
      96 CTL2         0.1624     0.0584   -16.3703 CTL2          1 ecer2     -0.180000
      97 HAL2        -0.5412     0.9201   -16.3591 HAL2          1 ecer2      0.090000
      98 HAL2         1.1913     0.4729   -16.4532 HAL2          1 ecer2      0.090000
      99 CTL2        -0.1333    -0.8043   -17.6029 CTL2          1 ecer2     -0.180000
     100 HAL2         0.5634    -1.6719   -17.6143 HAL2          1 ecer2      0.090000
     101 HAL2        -1.1677    -1.2081   -17.5141 HAL2          1 ecer2      0.090000
     102 CTL3        -0.0000     0.0000   -18.9932 CTL3          1 ecer2     -0.300000
     103 HAL3        -0.2663    -0.6083   -19.9045 HAL3          1 ecer2      0.100000
     104 HAL3        -0.6593     0.9125   -19.0574 HAL3          1 ecer2      0.100000
     105 HAL3         1.0358     0.3938   -19.1990 HAL3          1 ecer2      0.100000
@<TRIPOS>BOND
       1       84       85 1
       2       41       44 1
       3        5        8 1
       4       93       96 1
       5       99      102 1
       6       66       69 1
       7       11       14 1
       8        1       51 1
       9       90       91 1
      10       53       54 1
      11       20       22 1
      12       76       75 1
      13       58       59 1
      14        3        4 1
      15        5        6 1
      16       60       61 1
      17       93       94 1
      18       64       66 1
      19       38       40 1
      20       87       90 1
      21       51       53 1
      22        8        9 1
      23       96       97 1
      24       35       37 1
      25       81       82 1
      26       17       19 1
      27       96       99 1
      28        8       11 1
      29       78       75 1
      30       20       21 1
      31       32       35 1
      32       41       43 1
      33       72       74 1
      34       38       41 1
      35       35       38 1
      36       90       92 1
      37       27       26 1
      38       23       24 1
      39        1        3 1
      40       58       60 1
      41        3        5 1
      42       90       93 1
      43       17       20 1
      44       75       77 1
      45       29       32 1
      46       51       58 1
      47       80       78 1
      48       72       73 1
      49       44       45 1
      50      102      105 1
      51       81       83 1
      52       14       17 1
      53       69       72 1
      54       96       98 1
      55        8       10 1
      56       84       87 1
      57       23       26 1
      58       23       25 1
      59       81       78 1
      60      102      103 1
      61       69       70 1
      62       14       15 1
      63       47       48 1
      64       53       56 1
      65       47       50 1
      66       35       36 1
      67       84       86 1
      68       32       33 1
      69       29       31 1
      70      102      104 1
      71       14       16 1
      72       69       71 1
      73       29       30 1
      74       20       23 1
      75       44       46 1
      76       51       52 1
      77       32       34 1
      78       66       67 1
      79       99      100 1
      80       11       12 1
      81       53       55 1
      82       56       57 1
      83        1        2 1
      84       38       39 1
      85       62       63 1
      86       87       88 1
      87       47       49 1
      88       17       18 1
      89       62       64 1
      90       72       75 1
      91        5        7 1
      92       93       95 1
      93       64       65 1
      94       81       84 1
      95       87       89 1
      96       44       47 1
      97       66       68 1
      98       99      101 1
      99       11       13 1
     100       41       42 1
     101       28       26 1
     102       29       26 1
     103       58       62 1
     104       79       78 1
@<TRIPOS>SUBSTRUCTURE
       1 ecer2           1 RESIDUE    0 **** ROOT      0
