@<TRIPOS>MOLECULE
ecer2
105 104 1 0 1
SMALL
NO_CHARGES
@<TRIPOS>CRYSIN
   10.0435    15.3228    27.6078    90.0000    90.0000    90.0000  1  1
@<TRIPOS>ATOM
       1 NH1          0.0000     0.0000     0.0000 NH1           1 ecer2   
       2 HN1         -0.4514    -0.1334    -0.8909 HN1           1 ecer2   
       3 CLN         -0.2893    -0.9267     0.9686 CLN           1 ecer2   
       4 OBL         -1.1134    -1.8164     0.7865 OBL           1 ecer2   
       5 CTL2         0.3564    -0.7683     2.3584 CTL2          1 ecer2   
       6 HAL2         0.1727     0.2569     2.7153 HAL2          1 ecer2   
       7 HAL2         1.4501    -0.9195     2.2601 HAL2          1 ecer2   
       8 CTL2        -0.2023    -1.6784     3.4741 CTL2          1 ecer2   
       9 HAL2        -1.2886    -1.4713     3.6104 HAL2          1 ecer2   
      10 HAL2        -0.0981    -2.7468     3.1796 HAL2          1 ecer2   
      11 CTL2         0.5201    -1.4555     4.8048 CTL2          1 ecer2   
      12 HAL2         1.5944    -1.7293     4.7002 HAL2          1 ecer2   
      13 HAL2         0.4721    -0.3792     5.0771 HAL2          1 ecer2   
      14 CTL2        -0.0946    -2.2635     5.9440 CTL2          1 ecer2   
      15 HAL2        -1.1704    -1.9937     6.0449 HAL2          1 ecer2   
      16 HAL2        -0.0335    -3.3475     5.6993 HAL2          1 ecer2   
      17 CTL2         0.5996    -2.0123     7.2788 CTL2          1 ecer2   
      18 HAL2         1.6815    -2.2622     7.1950 HAL2          1 ecer2   
      19 HAL2         0.5209    -0.9330     7.5277 HAL2          1 ecer2   
      20 CTL2        -0.0275    -2.8273     8.4025 CTL2          1 ecer2   
      21 HAL2        -1.1027    -2.5541     8.4956 HAL2          1 ecer2   
      22 HAL2         0.0331    -3.9083     8.1484 HAL2          1 ecer2   
      23 CTL2         0.6632    -2.5927     9.7378 CTL2          1 ecer2   
      24 HAL2         1.7415    -2.8562     9.6543 HAL2          1 ecer2   
      25 HAL2         0.5990    -1.5129     9.9879 HAL2          1 ecer2   
      26 CTL2         0.0245    -3.4054    10.8573 CTL2          1 ecer2   
      27 HAL2        -1.0531    -3.1360    10.9369 HAL2          1 ecer2   
      28 HAL2         0.0916    -4.4874    10.6067 HAL2          1 ecer2   
      29 CTL2         0.7015    -3.1576    12.1997 CTL2          1 ecer2   
      30 HAL2         1.7845    -3.4040    12.1218 HAL2          1 ecer2   
      31 HAL2         0.6194    -2.0763    12.4405 HAL2          1 ecer2   
      32 CTL2         0.0715    -3.9727    13.3256 CTL2          1 ecer2   
      33 HAL2        -1.0117    -3.7235    13.3914 HAL2          1 ecer2   
      34 HAL2         0.1618    -5.0544    13.0823 HAL2          1 ecer2   
      35 CTL2         0.7335    -3.6985    14.6736 CTL2          1 ecer2   
      36 HAL2         1.8214    -3.9231    14.6039 HAL2          1 ecer2   
      37 HAL2         0.6292    -2.6158    14.8981 HAL2          1 ecer2   
      38 CTL2         0.1120    -4.5109    15.8101 CTL2          1 ecer2   
      39 HAL2        -0.9767    -4.2845    15.8584 HAL2          1 ecer2   
      40 HAL2         0.2283    -5.5932    15.5816 HAL2          1 ecer2   
      41 CTL2         0.7481    -4.2072    17.1698 CTL2          1 ecer2   
      42 HAL2         1.8395    -4.4188    17.1163 HAL2          1 ecer2   
      43 HAL2         0.6294    -3.1220    17.3725 HAL2          1 ecer2   
      44 CTL2         0.1218    -5.0127    18.3156 CTL2          1 ecer2   
      45 HAL2        -0.9748    -4.8199    18.3382 HAL2          1 ecer2   
      46 HAL2         0.2708    -6.0949    18.1033 HAL2          1 ecer2   
      47 CTL3         0.7192    -4.6791    19.6877 CTL3          1 ecer2   
      48 HAL3         1.8257    -4.7875    19.6734 HAL3          1 ecer2   
      49 HAL3         0.4741    -3.6358    19.9793 HAL3          1 ecer2   
      50 HAL3         0.3086    -5.3594    20.4644 HAL3          1 ecer2   
      51 CTL1         0.9896     1.1200     0.0737 CTL1          1 ecer2   
      52 HAL1         1.7167     0.8637     0.8792 HAL1          1 ecer2   
      53 CTL2         1.8606     1.1099    -1.2239 CTL2          1 ecer2   
      54 HAL2         1.2120     1.1219    -2.1286 HAL2          1 ecer2   
      55 HAL2         2.4910     2.0291    -1.2373 HAL2          1 ecer2   
      56 OHL          2.7348    -0.0217    -1.2416 OHL           1 ecer2   
      57 HOL          3.0510    -0.1271    -2.1434 HOL           1 ecer2   
      58 CTL1         0.2180     2.4425     0.3836 CTL1          1 ecer2   
      59 HAL1        -0.8787     2.2549     0.4641 HAL1          1 ecer2   
      60 OHL          0.4055     3.4682    -0.5896 OHL           1 ecer2   
      61 HOL         -0.1014     4.2279    -0.2883 HOL           1 ecer2   
      62 CEL1         0.7146     2.9172     1.7373 CEL1          1 ecer2   
      63 HEL1         1.7977     3.1112     1.8003 HEL1          1 ecer2   
      64 CEL1         0.0154     2.8005     2.8785 CEL1          1 ecer2   
      65 HEL1        -0.9856     2.3389     2.8523 HEL1          1 ecer2   
      66 CTL2         0.7055     2.8219     4.2127 CTL2          1 ecer2   
      67 HAL2         1.5288     2.0696     4.1988 HAL2          1 ecer2   
      68 HAL2         1.1621     3.8099     4.4363 HAL2          1 ecer2   
      69 CTL2        -0.2472     2.3954     5.3343 CTL2          1 ecer2   
      70 HAL2        -0.9958     3.2024     5.4945 HAL2          1 ecer2   
      71 HAL2        -0.8010     1.4810     5.0192 HAL2          1 ecer2   
      72 CTL2         0.4899     2.0896     6.6445 CTL2          1 ecer2   
      73 HAL2         1.2057     1.2530     6.4756 HAL2          1 ecer2   
      74 HAL2         1.0818     2.9813     6.9478 HAL2          1 ecer2   
      75 CTL2        -0.4480     1.6987     7.7896 CTL2          1 ecer2   
      76 HAL2        -1.1891     2.5118     7.9513 HAL2          1 ecer2   
      77 HAL2        -1.0109     0.7791     7.5072 HAL2          1 ecer2   
      78 CTL2         0.3100     1.4532     9.0986 CTL2          1 ecer2   
      79 HAL2         1.0850     0.6686     8.9445 HAL2          1 ecer2   
      80 HAL2         0.8364     2.3897     9.3890 HAL2          1 ecer2   
      81 CTL2        -0.6063     1.0182    10.2429 CTL2          1 ecer2   
      82 HAL2        -1.4024     1.7819    10.3866 HAL2          1 ecer2   
      83 HAL2        -1.1026     0.0595     9.9667 HAL2          1 ecer2   
      84 CTL2         0.1499     0.8394    11.5629 CTL2          1 ecer2   
      85 HAL2         0.9716     0.1009    11.4293 HAL2          1 ecer2   
      86 HAL2         0.6162     1.8092    11.8468 HAL2          1 ecer2   
      87 CTL2        -0.7615     0.3662    12.6972 CTL2          1 ecer2   
      88 HAL2        -1.5978     1.0909    12.8181 HAL2          1 ecer2   
      89 HAL2        -1.2031    -0.6181    12.4202 HAL2          1 ecer2   
      90 CTL2        -0.0244     0.2360    14.0338 CTL2          1 ecer2   
      91 HAL2         0.8355    -0.4607    13.9180 HAL2          1 ecer2   
      92 HAL2         0.3882     1.2301    14.3159 HAL2          1 ecer2   
      93 CTL2        -0.9319    -0.2747    15.1577 CTL2          1 ecer2   
      94 HAL2        -1.8055     0.4071    15.2579 HAL2          1 ecer2   
      95 HAL2        -1.3177    -1.2816    14.8784 HAL2          1 ecer2   
      96 CTL2        -0.2088    -0.3604    16.5074 CTL2          1 ecer2   
      97 HAL2         0.6867    -1.0119    16.4025 HAL2          1 ecer2   
      98 HAL2         0.1513     0.6536    16.7892 HAL2          1 ecer2   
      99 CTL2        -1.0913    -0.9119    17.6335 CTL2          1 ecer2   
     100 HAL2        -1.9925    -0.2675    17.7371 HAL2          1 ecer2   
     101 HAL2        -1.4403    -1.9298    17.3453 HAL2          1 ecer2   
     102 CTL3        -0.3355    -0.9976    19.0544 CTL3          1 ecer2   
     103 HAL3        -0.9561    -1.4509    19.8796 HAL3          1 ecer2   
     104 HAL3         0.6064    -1.6170    19.0335 HAL3          1 ecer2   
     105 HAL3        -0.0000     0.0001    19.4576 HAL3          1 ecer2   
@<TRIPOS>BOND
       1       53       51 1
       2       75       76 1
       3        8        9 1
       4       32       33 1
       5       99      100 1
       6       35       32 1
       7       62       64 1
       8       38       40 1
       9       53       56 1
      10       53       54 1
      11       58       60 1
      12       81       83 1
      13       14       16 1
      14       51        1 1
      15       38       35 1
      16       58       62 1
      17       87       88 1
      18       20       21 1
      19       64       65 1
      20       44       41 1
      21       78       80 1
      22       11       13 1
      23       84       87 1
      24        2        1 1
      25       17       20 1
      26       38       41 1
      27       81       82 1
      28       14       15 1
      29      102      103 1
      30       66       67 1
      31       44       45 1
      32       26       29 1
      33       93       96 1
      34       43       41 1
      35       64       66 1
      36       23       24 1
      37       90       91 1
      38       26       27 1
      39       93       94 1
      40       78       81 1
      41       11       14 1
      42       42       41 1
      43       47       48 1
      44       69       70 1
      45       75       78 1
      46        8       11 1
      47       81       84 1
      48       14       17 1
      49       47       50 1
      50       69       72 1
      51       72       73 1
      52       20       23 1
      53       87       90 1
      54       38       39 1
      55       56       57 1
      56       29       30 1
      57       96       97 1
      58       72       75 1
      59       60       61 1
      60        5        7 1
      61        3        5 1
      62       23       25 1
      63       37       35 1
      64       90       92 1
      65       29       31 1
      66       96       98 1
      67       96       99 1
      68       29       32 1
      69        5        8 1
      70       99      101 1
      71       32       34 1
      72      102       99 1
      73       72       74 1
      74       87       89 1
      75       20       22 1
      76      102      104 1
      77       66       68 1
      78       44       46 1
      79       26       28 1
      80       93       95 1
      81        3        1 1
      82       75       77 1
      83        8       10 1
      84       78       79 1
      85       36       35 1
      86       11       12 1
      87       62       63 1
      88       84       85 1
      89       17       18 1
      90       58       51 1
      91       47       49 1
      92       69       71 1
      93        3        4 1
      94       58       59 1
      95       84       86 1
      96       17       19 1
      97       52       51 1
      98      102      105 1
      99       44       47 1
     100       66       69 1
     101        5        6 1
     102       23       26 1
     103       90       93 1
     104       53       55 1
@<TRIPOS>SUBSTRUCTURE
       1 ecer2           1 RESIDUE    0 **** ROOT      0
