@<TRIPOS>MOLECULE
ecer2
105 104 1 0 1
SMALL
NO_CHARGES
@<TRIPOS>CRYSIN
   15.5577    12.4367    27.9770    90.0000    90.0000    90.0000  1  1
@<TRIPOS>ATOM
       1 NH1         -3.6109    -3.0129    19.6952 NH1           1 ecer2   
       2 HN1         -3.6613    -3.6652    20.4615 HN1           1 ecer2   
       3 CLN         -3.5915    -3.5589    18.4373 CLN           1 ecer2   
       4 OBL         -3.5529    -4.7718    18.2596 OBL           1 ecer2   
       5 CTL2        -3.4981    -2.6145    17.2237 CTL2          1 ecer2   
       6 HAL2        -2.6503    -1.9292    17.3775 HAL2          1 ecer2   
       7 HAL2        -4.4308    -2.0184    17.1664 HAL2          1 ecer2   
       8 CTL2        -3.2181    -3.2858    15.8613 CTL2          1 ecer2   
       9 HAL2        -2.2458    -3.8276    15.9093 HAL2          1 ecer2   
      10 HAL2        -4.0101    -4.0356    15.6382 HAL2          1 ecer2   
      11 CTL2        -3.1652    -2.2632    14.7238 CTL2          1 ecer2   
      12 HAL2        -4.1561    -1.7659    14.6185 HAL2          1 ecer2   
      13 HAL2        -2.4182    -1.4771    14.9663 HAL2          1 ecer2   
      14 CTL2        -2.7771    -2.8948    13.3900 CTL2          1 ecer2   
      15 HAL2        -1.7887    -3.3970    13.4970 HAL2          1 ecer2   
      16 HAL2        -3.5287    -3.6694    13.1186 HAL2          1 ecer2   
      17 CTL2        -2.6856    -1.8704    12.2636 CTL2          1 ecer2   
      18 HAL2        -3.6611    -1.3456    12.1499 HAL2          1 ecer2   
      19 HAL2        -1.9221    -1.1095    12.5305 HAL2          1 ecer2   
      20 CTL2        -2.2975    -2.5197    10.9414 CTL2          1 ecer2   
      21 HAL2        -1.3104    -3.0214    11.0568 HAL2          1 ecer2   
      22 HAL2        -3.0503    -3.2954    10.6797 HAL2          1 ecer2   
      23 CTL2        -2.2128    -1.5089     9.8073 CTL2          1 ecer2   
      24 HAL2        -3.1933    -0.9957     9.6875 HAL2          1 ecer2   
      25 HAL2        -1.4594    -0.7376    10.0723 HAL2          1 ecer2   
      26 CTL2        -1.8163    -2.1655     8.4907 CTL2          1 ecer2   
      27 HAL2        -0.8343    -2.6752     8.6166 HAL2          1 ecer2   
      28 HAL2        -2.5732    -2.9364     8.2251 HAL2          1 ecer2   
      29 CTL2        -1.7113    -1.1526     7.3571 CTL2          1 ecer2   
      30 HAL2        -2.6836    -0.6230     7.2398 HAL2          1 ecer2   
      31 HAL2        -0.9470    -0.3950     7.6323 HAL2          1 ecer2   
      32 CTL2        -1.3205    -1.8032     6.0332 CTL2          1 ecer2   
      33 HAL2        -0.3506    -2.3346     6.1627 HAL2          1 ecer2   
      34 HAL2        -2.0919    -2.5564     5.7594 HAL2          1 ecer2   
      35 CTL2        -1.1873    -0.7806     4.9075 CTL2          1 ecer2   
      36 HAL2        -2.1479    -0.2303     4.7922 HAL2          1 ecer2   
      37 HAL2        -0.4114    -0.0415     5.1994 HAL2          1 ecer2   
      38 CTL2        -0.7975    -1.4206     3.5747 CTL2          1 ecer2   
      39 HAL2         0.1573    -1.9764     3.7100 HAL2          1 ecer2   
      40 HAL2        -1.5835    -2.1525     3.2857 HAL2          1 ecer2   
      41 CTL2        -0.6241    -0.3916     2.4536 CTL2          1 ecer2   
      42 HAL2        -1.5742     0.1747     2.3294 HAL2          1 ecer2   
      43 HAL2         0.1564     0.3332     2.7672 HAL2          1 ecer2   
      44 CTL2        -0.2236    -1.0273     1.1159 CTL2          1 ecer2   
      45 HAL2         0.7088    -1.6190     1.2596 HAL2          1 ecer2   
      46 HAL2        -1.0282    -1.7327     0.8102 HAL2          1 ecer2   
      47 CTL3         0.0000     0.0000     0.0000 CTL3          1 ecer2   
      48 HAL3        -0.8885     0.6586    -0.1140 HAL3          1 ecer2   
      49 HAL3         0.8811     0.6378     0.2245 HAL3          1 ecer2   
      50 HAL3         0.1841    -0.5138    -0.9679 HAL3          1 ecer2   
      51 CTL1        -3.6780    -1.5634    20.0609 CTL1          1 ecer2   
      52 HAL1        -4.0854    -1.0199    19.1767 HAL1          1 ecer2   
      53 CTL2        -4.7804    -1.3687    21.1514 CTL2          1 ecer2   
      54 HAL2        -4.6057    -2.0566    22.0091 HAL2          1 ecer2   
      55 HAL2        -4.7261    -0.3218    21.5303 HAL2          1 ecer2   
      56 OHL         -6.0842    -1.5681    20.5989 OHL           1 ecer2   
      57 HOL         -6.6921    -1.6929    21.3332 HOL           1 ecer2   
      58 CTL1        -2.2396    -1.0795    20.4313 CTL1          1 ecer2   
      59 HAL1        -1.5051    -1.9154    20.3530 HAL1          1 ecer2   
      60 OHL         -2.1283    -0.5347    21.7447 OHL           1 ecer2   
      61 HOL         -1.2120    -0.2630    21.8520 HOL           1 ecer2   
      62 CEL1        -1.8667    -0.0278    19.4019 CEL1          1 ecer2   
      63 HEL1        -2.5378     0.8453    19.3560 HEL1          1 ecer2   
      64 CEL1        -1.0188    -0.2407    18.3818 CEL1          1 ecer2   
      65 HEL1        -0.5494    -1.2321    18.2694 HEL1          1 ecer2   
      66 CTL2        -1.0562     0.6230    17.1533 CTL2          1 ecer2   
      67 HAL2        -2.1035     0.6512    16.7707 HAL2          1 ecer2   
      68 HAL2        -0.7513     1.6705    17.3640 HAL2          1 ecer2   
      69 CTL2        -0.2045     0.0229    16.0300 CTL2          1 ecer2   
      70 HAL2         0.8695     0.1248    16.3013 HAL2          1 ecer2   
      71 HAL2        -0.4268    -1.0655    15.9406 HAL2          1 ecer2   
      72 CTL2        -0.4727     0.6865    14.6730 CTL2          1 ecer2   
      73 HAL2        -1.5422     0.5398    14.3985 HAL2          1 ecer2   
      74 HAL2        -0.2957     1.7812    14.7601 HAL2          1 ecer2   
      75 CTL2         0.3966     0.1274    13.5437 CTL2          1 ecer2   
      76 HAL2         1.4690     0.2389    13.8159 HAL2          1 ecer2   
      77 HAL2         0.1894    -0.9611    13.4235 HAL2          1 ecer2   
      78 CTL2         0.1471     0.8460    12.2132 CTL2          1 ecer2   
      79 HAL2        -0.9315     0.7788    11.9446 HAL2          1 ecer2   
      80 HAL2         0.3938     1.9242    12.3364 HAL2          1 ecer2   
      81 CTL2         0.9748     0.2708    11.0633 CTL2          1 ecer2   
      82 HAL2         2.0534     0.3066    11.3334 HAL2          1 ecer2   
      83 HAL2         0.6978    -0.7983    10.9154 HAL2          1 ecer2   
      84 CTL2         0.7686     1.0371     9.7531 CTL2          1 ecer2   
      85 HAL2        -0.3111     1.0387     9.4835 HAL2          1 ecer2   
      86 HAL2         1.0769     2.0962     9.9012 HAL2          1 ecer2   
      87 CTL2         1.5674     0.4362     8.5946 CTL2          1 ecer2   
      88 HAL2         2.6455     0.4117     8.8704 HAL2          1 ecer2   
      89 HAL2         1.2348    -0.6144     8.4322 HAL2          1 ecer2   
      90 CTL2         1.4090     1.2280     7.2928 CTL2          1 ecer2   
      91 HAL2         0.3310     1.2889     7.0233 HAL2          1 ecer2   
      92 HAL2         1.7704     2.2674     7.4572 HAL2          1 ecer2   
      93 CTL2         2.1797     0.6008     6.1264 CTL2          1 ecer2   
      94 HAL2         3.2538     0.5159     6.4041 HAL2          1 ecer2   
      95 HAL2         1.7920    -0.4288     5.9520 HAL2          1 ecer2   
      96 CTL2         2.0617     1.4175     4.8339 CTL2          1 ecer2   
      97 HAL2         0.9871     1.5365     4.5724 HAL2          1 ecer2   
      98 HAL2         2.4734     2.4356     5.0111 HAL2          1 ecer2   
      99 CTL2         2.7913     0.7797     3.6456 CTL2          1 ecer2   
     100 HAL2         3.8657     0.6518     3.9054 HAL2          1 ecer2   
     101 HAL2         2.3669    -0.2354     3.4715 HAL2          1 ecer2   
     102 CTL3         2.6738     1.6391     2.2871 CTL3          1 ecer2   
     103 HAL3         3.1608     1.1553     1.3926 HAL3          1 ecer2   
     104 HAL3         1.6122     1.8354     1.9619 HAL3          1 ecer2   
     105 HAL3         3.1364     2.6650     2.3506 HAL3          1 ecer2   
@<TRIPOS>BOND
       1       38       39 1
       2       93       94 1
       3       32       29 1
       4        8       11 1
       5       14       17 1
       6       33       32 1
       7       41       43 1
       8       96       98 1
       9       23       25 1
      10       44       45 1
      11       99      100 1
      12       47       48 1
      13       66       67 1
      14      102      103 1
      15       51       58 1
      16       51       52 1
      17       69       71 1
      18        8        9 1
      19       41       44 1
      20       96       99 1
      21       84       86 1
      22       72       74 1
      23       11       12 1
      24       81       83 1
      25       51        1 1
      26       90       91 1
      27       53       55 1
      28       35       36 1
      29       20       22 1
      30       11       14 1
      31       23       24 1
      32       78       81 1
      33       44       47 1
      34       99      102 1
      35        3        1 1
      36       26       28 1
      37       84       87 1
      38       81       84 1
      39       29       31 1
      40       26       27 1
      41       29       30 1
      42       64       66 1
      43       47       49 1
      44       66       68 1
      45      102      104 1
      46       20       23 1
      47       66       69 1
      48       47       50 1
      49      102      105 1
      50       72       75 1
      51       56       57 1
      52       99      101 1
      53       44       46 1
      54       75       78 1
      55        5        8 1
      56       17       20 1
      57       90       92 1
      58       53       56 1
      59       35       37 1
      60       11       13 1
      61        5        7 1
      62       93       96 1
      63       38       41 1
      64       69       70 1
      65       87       88 1
      66       51       53 1
      67       17       18 1
      68       26       29 1
      69       87       90 1
      70       58       59 1
      71       81       82 1
      72       38       40 1
      73       93       95 1
      74       78       79 1
      75       34       32 1
      76       75       77 1
      77       17       19 1
      78       75       76 1
      79       58       60 1
      80       23       26 1
      81       62       63 1
      82       69       72 1
      83       78       80 1
      84       14       15 1
      85        1        2 1
      86       64       65 1
      87       84       85 1
      88       87       89 1
      89       58       62 1
      90        3        4 1
      91       41       42 1
      92       96       97 1
      93       60       61 1
      94       35       32 1
      95       54       53 1
      96       20       21 1
      97        8       10 1
      98       72       73 1
      99       35       38 1
     100       90       93 1
     101       62       64 1
     102        3        5 1
     103       14       16 1
     104        5        6 1
@<TRIPOS>SUBSTRUCTURE
       1 ecer2           1 RESIDUE    0 **** ROOT      0
