@<TRIPOS>MOLECULE
ecer2
105 104 1 0 1
SMALL
NO_CHARGES
@<TRIPOS>CRYSIN
    9.4446    11.9837    28.4980    90.0000    90.0000    90.0000  1  1
@<TRIPOS>ATOM
       1 NH1         -0.9583    -0.8726   -20.2073 NH1           1 ecer2   
       2 HN1         -1.5069    -1.0854   -21.0253 HN1           1 ecer2   
       3 CLN         -1.4395    -1.3516   -19.0158 CLN           1 ecer2   
       4 OBL         -2.5171    -1.9322   -18.9404 OBL           1 ecer2   
       5 CTL2        -0.6547    -1.0454   -17.7259 CTL2          1 ecer2   
       6 HAL2        -0.4692     0.0388   -17.6777 HAL2          1 ecer2   
       7 HAL2         0.3202    -1.5709   -17.7713 HAL2          1 ecer2   
       8 CTL2        -1.3717    -1.3803   -16.3996 CTL2          1 ecer2   
       9 HAL2        -2.3183    -0.7965   -16.3338 HAL2          1 ecer2   
      10 HAL2        -1.6404    -2.4603   -16.3761 HAL2          1 ecer2   
      11 CTL2        -0.4992    -1.0571   -15.1843 CTL2          1 ecer2   
      12 HAL2         0.4178    -1.6888   -15.2009 HAL2          1 ecer2   
      13 HAL2        -0.1770     0.0053   -15.2311 HAL2          1 ecer2   
      14 CTL2        -1.2343    -1.2749   -13.8649 CTL2          1 ecer2   
      15 HAL2        -2.1543    -0.6474   -13.8509 HAL2          1 ecer2   
      16 HAL2        -1.5442    -2.3412   -13.7894 HAL2          1 ecer2   
      17 CTL2        -0.3791    -0.9157   -12.6541 CTL2          1 ecer2   
      18 HAL2         0.5545    -1.5226   -12.6574 HAL2          1 ecer2   
      19 HAL2        -0.0870     0.1532   -12.7243 HAL2          1 ecer2   
      20 CTL2        -1.1295    -1.1398   -11.3475 CTL2          1 ecer2   
      21 HAL2        -2.0486    -0.5117   -11.3419 HAL2          1 ecer2   
      22 HAL2        -1.4398    -2.2059   -11.2819 HAL2          1 ecer2   
      23 CTL2        -0.2829    -0.7944   -10.1314 CTL2          1 ecer2   
      24 HAL2         0.6431    -1.4123   -10.1305 HAL2          1 ecer2   
      25 HAL2         0.0232     0.2705   -10.2005 HAL2          1 ecer2   
      26 CTL2        -1.0439    -1.0138    -8.8296 CTL2          1 ecer2   
      27 HAL2        -1.9676    -0.3919    -8.8359 HAL2          1 ecer2   
      28 HAL2        -1.3480    -2.0818    -8.7604 HAL2          1 ecer2   
      29 CTL2        -0.2053    -0.6499    -7.6105 CTL2          1 ecer2   
      30 HAL2         0.7309    -1.2524    -7.6093 HAL2          1 ecer2   
      31 HAL2         0.0835     0.4198    -7.6891 HAL2          1 ecer2   
      32 CTL2        -0.9583    -0.8726    -6.3020 CTL2          1 ecer2   
      33 HAL2        -1.8950    -0.2708    -6.3157 HAL2          1 ecer2   
      34 HAL2        -1.2397    -1.9461    -6.2256 HAL2          1 ecer2   
      35 CTL2        -0.1250    -0.4784    -5.0851 CTL2          1 ecer2   
      36 HAL2         0.8237    -1.0606    -5.0821 HAL2          1 ecer2   
      37 HAL2         0.1419     0.5955    -5.1798 HAL2          1 ecer2   
      38 CTL2        -0.8681    -0.6986    -3.7671 CTL2          1 ecer2   
      39 HAL2        -1.8189    -0.1204    -3.7910 HAL2          1 ecer2   
      40 HAL2        -1.1239    -1.7772    -3.6763 HAL2          1 ecer2   
      41 CTL2        -0.0488    -0.2660    -2.5476 CTL2          1 ecer2   
      42 HAL2         0.9088    -0.8332    -2.5327 HAL2          1 ecer2   
      43 HAL2         0.2034     0.8091    -2.6640 HAL2          1 ecer2   
      44 CTL2        -0.7934    -0.4759    -1.2226 CTL2          1 ecer2   
      45 HAL2        -1.7646     0.0676    -1.2617 HAL2          1 ecer2   
      46 HAL2        -1.0168    -1.5608    -1.1162 HAL2          1 ecer2   
      47 CTL3         0.0000     0.0000     0.0000 CTL3          1 ecer2   
      48 HAL3         1.0082    -0.4682     0.0230 HAL3          1 ecer2   
      49 HAL3         0.1275     1.1031    -0.0199 HAL3          1 ecer2   
      50 HAL3        -0.5343    -0.2683     0.9366 HAL3          1 ecer2   
      51 CTL1         0.3391    -0.1681   -20.4516 CTL1          1 ecer2   
      52 HAL1         1.0159    -0.4221   -19.6027 HAL1          1 ecer2   
      53 CTL2         1.0410    -0.8176   -21.6877 CTL2          1 ecer2   
      54 HAL2         0.3514    -0.8374   -22.5614 HAL2          1 ecer2   
      55 HAL2         1.9275    -0.1993   -21.9600 HAL2          1 ecer2   
      56 OHL          1.5035    -2.1347   -21.3769 OHL           1 ecer2   
      57 HOL          1.6871    -2.5791   -22.2094 HOL           1 ecer2   
      58 CTL1         0.0604     1.3666   -20.5365 CTL1          1 ecer2   
      59 HAL1        -1.0269     1.5821   -20.4113 HAL1          1 ecer2   
      60 OHL          0.4766     1.9676   -21.7611 OHL           1 ecer2   
      61 HOL          0.2677     2.9038   -21.6920 HOL           1 ecer2   
      62 CEL1         0.8021     1.9984   -19.3722 CEL1          1 ecer2   
      63 HEL1         1.8916     1.8320   -19.3617 HEL1          1 ecer2   
      64 CEL1         0.2078     2.4340   -18.2488 CEL1          1 ecer2   
      65 HEL1        -0.8862     2.3411   -18.1473 HEL1          1 ecer2   
      66 CTL2         0.9857     2.5866   -16.9728 CTL2          1 ecer2   
      67 HAL2         1.5216     1.6303   -16.7670 HAL2          1 ecer2   
      68 HAL2         1.7517     3.3890   -17.0385 HAL2          1 ecer2   
      69 CTL2         0.0518     2.8208   -15.7811 CTL2          1 ecer2   
      70 HAL2        -0.3829     3.8415   -15.8619 HAL2          1 ecer2   
      71 HAL2        -0.7905     2.0924   -15.8246 HAL2          1 ecer2   
      72 CTL2         0.7677     2.6557   -14.4343 CTL2          1 ecer2   
      73 HAL2         1.1612     1.6167   -14.3535 HAL2          1 ecer2   
      74 HAL2         1.6377     3.3479   -14.3955 HAL2          1 ecer2   
      75 CTL2        -0.1389     2.9236   -13.2302 CTL2          1 ecer2   
      76 HAL2        -0.5644     3.9477   -13.3113 HAL2          1 ecer2   
      77 HAL2        -0.9885     2.2023   -13.2409 HAL2          1 ecer2   
      78 CTL2         0.6159     2.8057   -11.9016 CTL2          1 ecer2   
      79 HAL2         1.0832     1.7982   -11.8212 HAL2          1 ecer2   
      80 HAL2         1.4373     3.5566   -11.8882 HAL2          1 ecer2   
      81 CTL2        -0.2844     3.0263   -10.6855 CTL2          1 ecer2   
      82 HAL2        -0.7792     4.0192   -10.7701 HAL2          1 ecer2   
      83 HAL2        -1.0831     2.2493   -10.6789 HAL2          1 ecer2   
      84 CTL2         0.4909     2.9723    -9.3656 CTL2          1 ecer2   
      85 HAL2         1.0188     1.9965    -9.2784 HAL2          1 ecer2   
      86 HAL2         1.2655     3.7714    -9.3682 HAL2          1 ecer2   
      87 CTL2        -0.4179     3.1542    -8.1481 CTL2          1 ecer2   
      88 HAL2        -0.9651     4.1188    -8.2436 HAL2          1 ecer2   
      89 HAL2        -1.1732     2.3356    -8.1346 HAL2          1 ecer2   
      90 CTL2         0.3564     3.1549    -6.8262 CTL2          1 ecer2   
      91 HAL2         0.9353     2.2091    -6.7337 HAL2          1 ecer2   
      92 HAL2         1.0880     3.9932    -6.8378 HAL2          1 ecer2   
      93 CTL2        -0.5616     3.2986    -5.6079 CTL2          1 ecer2   
      94 HAL2        -1.1596     4.2313    -5.7112 HAL2          1 ecer2   
      95 HAL2        -1.2717     2.4407    -5.5899 HAL2          1 ecer2   
      96 CTL2         0.2148     3.3478    -4.2863 CTL2          1 ecer2   
      97 HAL2         0.8427     2.4340    -4.1961 HAL2          1 ecer2   
      98 HAL2         0.9031     4.2214    -4.3041 HAL2          1 ecer2   
      99 CTL2        -0.6924     3.4470    -3.0542 CTL2          1 ecer2   
     100 HAL2        -1.3280     4.3560    -3.1436 HAL2          1 ecer2   
     101 HAL2        -1.3720     2.5645    -3.0413 HAL2          1 ecer2   
     102 CTL3         0.1213     3.5047    -1.6641 CTL3          1 ecer2   
     103 HAL3        -0.5345     3.5243    -0.7470 HAL3          1 ecer2   
     104 HAL3         0.8107     2.6273    -1.5023 HAL3          1 ecer2   
     105 HAL3         0.7921     4.4046    -1.5610 HAL3          1 ecer2   
@<TRIPOS>BOND
       1       93       94 1
       2       38       39 1
       3       29       30 1
       4        8       11 1
       5       14       17 1
       6       33       32 1
       7       41       43 1
       8       96       98 1
       9       23       25 1
      10       44       45 1
      11       99      100 1
      12      102      103 1
      13       47       48 1
      14       66       67 1
      15       51       58 1
      16       51       52 1
      17       69       71 1
      18        8        9 1
      19       41       44 1
      20       96       99 1
      21       84       86 1
      22       72       74 1
      23       11       12 1
      24       81       83 1
      25       51        1 1
      26       90       91 1
      27       53       55 1
      28       35       36 1
      29       20       22 1
      30       11       14 1
      31       23       24 1
      32       78       81 1
      33       99      102 1
      34       44       47 1
      35       32       29 1
      36       84       87 1
      37       81       84 1
      38       26       27 1
      39       64       66 1
      40      102      104 1
      41       66       68 1
      42       47       49 1
      43       20       23 1
      44       29       31 1
      45      102      105 1
      46       47       50 1
      47       66       69 1
      48       72       75 1
      49       56       57 1
      50       44       46 1
      51       99      101 1
      52       75       78 1
      53        5        8 1
      54       17       20 1
      55       90       92 1
      56       53       56 1
      57       35       37 1
      58       11       13 1
      59        5        7 1
      60       38       41 1
      61       93       96 1
      62       69       70 1
      63       26       28 1
      64       87       88 1
      65       51       53 1
      66       17       18 1
      67       87       90 1
      68       58       59 1
      69       81       82 1
      70       93       95 1
      71       38       40 1
      72       78       79 1
      73       34       32 1
      74       75       77 1
      75       17       19 1
      76       75       76 1
      77       26       29 1
      78       58       60 1
      79       23       26 1
      80       62       63 1
      81        3        1 1
      82       69       72 1
      83       78       80 1
      84       14       15 1
      85        1        2 1
      86       64       65 1
      87       84       85 1
      88       87       89 1
      89       58       62 1
      90        3        4 1
      91       96       97 1
      92       41       42 1
      93       60       61 1
      94       35       32 1
      95       54       53 1
      96       20       21 1
      97        8       10 1
      98       72       73 1
      99       90       93 1
     100       62       64 1
     101       35       38 1
     102        3        5 1
     103       14       16 1
     104        5        6 1
@<TRIPOS>SUBSTRUCTURE
       1 ecer2           1 RESIDUE    0 **** ROOT      0
