@<TRIPOS>MOLECULE
ffa12
38 37 1 0 1
SMALL
USER_CHARGES
@<TRIPOS>CRYSIN
    7.7392     8.3079    20.8706    90.0000    90.0000    90.0000  1  1
@<TRIPOS>ATOM
       1 HOL          0.6565     1.6080     0.7741 HOL           1 ffa12      0.440000
       2 OHL          0.5193     1.2714    -0.1079 OHL           1 ffa12     -0.610000
       3 OBL         -0.1961    -0.4803     1.1059 OBL           1 ffa12     -0.550000
       4 CL           0.0000     0.0000     0.0000 CL            1 ffa12      0.750000
       5 CTL2        -0.2824    -0.6922    -1.3290 CTL2          1 ffa12     -0.210000
       6 HAL2        -1.3608    -0.9531    -1.3591 HAL2          1 ffa12      0.090000
       7 HAL2         0.3036    -1.6337    -1.3594 HAL2          1 ffa12      0.090000
       8 CTL2         0.0703     0.1720    -2.5542 CTL2          1 ffa12     -0.180000
       9 HAL2         1.1525     0.4397    -2.5387 HAL2          1 ffa12      0.090000
      10 HAL2        -0.5139     1.1206    -2.5392 HAL2          1 ffa12      0.090000
      11 CTL2        -0.2277    -0.5591    -3.8562 CTL2          1 ffa12     -0.180000
      12 HAL2        -1.3083    -0.8244    -3.9005 HAL2          1 ffa12      0.090000
      13 HAL2         0.3582    -1.5053    -3.9000 HAL2          1 ffa12      0.090000
      14 CTL2         0.1270     0.3097    -5.0548 CTL2          1 ffa12     -0.180000
      15 HAL2         1.2077     0.5766    -5.0161 HAL2          1 ffa12      0.090000
      16 HAL2        -0.4569     1.2570    -5.0167 HAL2          1 ffa12      0.090000
      17 CTL2        -0.1684    -0.4151    -6.3587 CTL2          1 ffa12     -0.180000
      18 HAL2        -1.2498    -0.6804    -6.3998 HAL2          1 ffa12      0.090000
      19 HAL2         0.4166    -1.3615    -6.4002 HAL2          1 ffa12      0.090000
      20 CTL2         0.1865     0.4539    -7.5563 CTL2          1 ffa12     -0.180000
      21 HAL2         1.2673     0.7206    -7.5144 HAL2          1 ffa12      0.090000
      22 HAL2        -0.3982     1.4013    -7.5150 HAL2          1 ffa12      0.090000
      23 CTL2        -0.1088    -0.2701    -8.8614 CTL2          1 ffa12     -0.180000
      24 HAL2        -1.1905    -0.5376    -8.8988 HAL2          1 ffa12      0.090000
      25 HAL2         0.4752    -1.2173    -8.8985 HAL2          1 ffa12      0.090000
      26 CTL2         0.2454     0.5972   -10.0616 CTL2          1 ffa12     -0.180000
      27 HAL2         1.3260     0.8625   -10.0173 HAL2          1 ffa12      0.090000
      28 HAL2        -0.3403     1.5437   -10.0168 HAL2          1 ffa12      0.090000
      29 CTL2        -0.0505    -0.1285   -11.3694 CTL2          1 ffa12     -0.180000
      30 HAL2        -1.1319    -0.3964   -11.4005 HAL2          1 ffa12      0.090000
      31 HAL2         0.5328    -1.0761   -11.4011 HAL2          1 ffa12      0.090000
      32 CTL2         0.2970     0.7256   -12.5852 CTL2          1 ffa12     -0.180000
      33 HAL2         1.3785     0.9935   -12.5385 HAL2          1 ffa12      0.090000
      34 HAL2        -0.2859     1.6742   -12.5382 HAL2          1 ffa12      0.090000
      35 CTL3         0.0000     0.0000   -13.8939 CTL3          1 ffa12     -0.270000
      36 HAL3        -1.0798    -0.2597   -13.9479 HAL3          1 ffa12      0.090000
      37 HAL3         0.5882    -0.9422   -13.9483 HAL3          1 ffa12      0.090000
      38 HAL3         0.2596     0.6363   -14.7647 HAL3          1 ffa12      0.090000
@<TRIPOS>BOND
       1       11        8 1
       2       38       35 1
       3       26       23 1
       4        8        5 1
       5       32       29 1
       6       14       11 1
       7       18       17 1
       8        3        4 1
       9       34       32 1
      10        5        4 1
      11       17       14 1
      12       25       23 1
      13        2        4 1
      14       15       14 1
      15       28       26 1
      16       13       11 1
      17       35       32 1
      18       12       11 1
      19        7        5 1
      20       27       26 1
      21       36       35 1
      22       20       17 1
      23       33       32 1
      24        6        5 1
      25       29       26 1
      26       23       20 1
      27       19       17 1
      28       22       20 1
      29       31       29 1
      30        2        1 1
      31       16       14 1
      32       10        8 1
      33       21       20 1
      34       24       23 1
      35       30       29 1
      36        9        8 1
      37       37       35 1
@<TRIPOS>SUBSTRUCTURE
       1 ffa12           1 RESIDUE    0 **** ROOT      0
