@<TRIPOS>MOLECULE
ffa12
38 37 1 0 1
SMALL
NO_CHARGES
@<TRIPOS>CRYSIN
    7.7393     8.3079    20.8706    90.0000    90.0000    90.0000  1  1
@<TRIPOS>ATOM
       1              0.6565     1.6080     0.7741               1 ffa12   
       2              0.5193     1.2714    -0.1079               1 ffa12   
       3             -0.1961    -0.4803     1.1059               1 ffa12   
       4              0.0000     0.0000     0.0000               1 ffa12   
       5             -0.2824    -0.6922    -1.3290               1 ffa12   
       6             -1.3608    -0.9531    -1.3591               1 ffa12   
       7              0.3036    -1.6337    -1.3594               1 ffa12   
       8              0.0703     0.1720    -2.5542               1 ffa12   
       9              1.1525     0.4397    -2.5387               1 ffa12   
      10 10          -0.5139     1.1206    -2.5392 10            1 ffa12   
      11 11          -0.2277    -0.5591    -3.8562 11            1 ffa12   
      12 12          -1.3083    -0.8244    -3.9005 12            1 ffa12   
      13 13           0.3582    -1.5053    -3.9000 13            1 ffa12   
      14 14           0.1270     0.3097    -5.0548 14            1 ffa12   
      15 15           1.2077     0.5766    -5.0161 15            1 ffa12   
      16 16          -0.4569     1.2570    -5.0167 16            1 ffa12   
      17 17          -0.1684    -0.4151    -6.3587 17            1 ffa12   
      18 18          -1.2498    -0.6804    -6.3998 18            1 ffa12   
      19 19           0.4166    -1.3615    -6.4002 19            1 ffa12   
      20 20           0.1865     0.4539    -7.5563 20            1 ffa12   
      21 21           1.2673     0.7206    -7.5144 21            1 ffa12   
      22 22          -0.3982     1.4013    -7.5150 22            1 ffa12   
      23 23          -0.1088    -0.2701    -8.8614 23            1 ffa12   
      24 24          -1.1905    -0.5376    -8.8988 24            1 ffa12   
      25 25           0.4752    -1.2173    -8.8985 25            1 ffa12   
      26 26           0.2454     0.5972   -10.0616 26            1 ffa12   
      27 27           1.3260     0.8625   -10.0173 27            1 ffa12   
      28 28          -0.3403     1.5437   -10.0168 28            1 ffa12   
      29 29          -0.0505    -0.1285   -11.3694 29            1 ffa12   
      30 30          -1.1319    -0.3964   -11.4005 30            1 ffa12   
      31 31           0.5328    -1.0761   -11.4011 31            1 ffa12   
      32 32           0.2970     0.7256   -12.5852 32            1 ffa12   
      33 33           1.3785     0.9935   -12.5385 33            1 ffa12   
      34 34          -0.2859     1.6742   -12.5382 34            1 ffa12   
      35 35           0.0000     0.0000   -13.8939 35            1 ffa12   
      36 36          -1.0798    -0.2597   -13.9479 36            1 ffa12   
      37 37           0.5882    -0.9422   -13.9483 37            1 ffa12   
      38 38           0.2596     0.6363   -14.7647 38            1 ffa12   
@<TRIPOS>BOND
       1        8       11 1
       2        2        4 1
       3       17       14 1
       4       11       12 1
       5       16       14 1
       6       32       33 1
       7        3        4 1
       8        6        5 1
       9       29       31 1
      10       24       23 1
      11       11       14 1
      12       26       23 1
      13       15       14 1
      14        9        8 1
      15       29       30 1
      16       26       29 1
      17       23       20 1
      18       35       37 1
      19       25       23 1
      20       32       34 1
      21       20       17 1
      22       32       35 1
      23       35       36 1
      24        7        5 1
      25        8       10 1
      26       19       17 1
      27       21       20 1
      28       26       28 1
      29       22       20 1
      30        2        1 1
      31        4        5 1
      32        8        5 1
      33       29       32 1
      34       18       17 1
      35       26       27 1
      36       11       13 1
      37       35       38 1
@<TRIPOS>SUBSTRUCTURE
       1 ffa12           1 RESIDUE    0 **** ROOT      0
