@<TRIPOS>MOLECULE
ffa12
38 37 1 0 1
SMALL
NO_CHARGES
@<TRIPOS>CRYSIN
    7.7392     8.3079    20.8706    90.0000    90.0000    90.0000  1  1
@<TRIPOS>ATOM
       1 HOL          0.6565     1.6080    14.6680 HOL           1 ffa12   
       2 OHL          0.5193     1.2714    13.7860 OHL           1 ffa12   
       3 OBL         -0.1961    -0.4803    14.9998 OBL           1 ffa12   
       4 CL          -0.0000    -0.0000    13.8939 CL            1 ffa12   
       5 CTL2        -0.2824    -0.6922    12.5649 CTL2          1 ffa12   
       6 HAL2        -1.3608    -0.9531    12.5348 HAL2          1 ffa12   
       7 HAL2         0.3036    -1.6337    12.5344 HAL2          1 ffa12   
       8 CTL2         0.0703     0.1720    11.3397 CTL2          1 ffa12   
       9 HAL2         1.1525     0.4397    11.3552 HAL2          1 ffa12   
      10 HAL2        -0.5139     1.1206    11.3547 HAL2          1 ffa12   
      11 CTL2        -0.2277    -0.5591    10.0377 CTL2          1 ffa12   
      12 HAL2        -1.3083    -0.8244     9.9934 HAL2          1 ffa12   
      13 HAL2         0.3582    -1.5053     9.9938 HAL2          1 ffa12   
      14 CTL2         0.1270     0.3097     8.8391 CTL2          1 ffa12   
      15 HAL2         1.2077     0.5766     8.8778 HAL2          1 ffa12   
      16 HAL2        -0.4569     1.2570     8.8772 HAL2          1 ffa12   
      17 CTL2        -0.1684    -0.4151     7.5352 CTL2          1 ffa12   
      18 HAL2        -1.2498    -0.6804     7.4941 HAL2          1 ffa12   
      19 HAL2         0.4166    -1.3615     7.4936 HAL2          1 ffa12   
      20 CTL2         0.1865     0.4539     6.3376 CTL2          1 ffa12   
      21 HAL2         1.2673     0.7206     6.3795 HAL2          1 ffa12   
      22 HAL2        -0.3982     1.4013     6.3789 HAL2          1 ffa12   
      23 CTL2        -0.1088    -0.2701     5.0325 CTL2          1 ffa12   
      24 HAL2        -1.1905    -0.5376     4.9951 HAL2          1 ffa12   
      25 HAL2         0.4752    -1.2173     4.9954 HAL2          1 ffa12   
      26 CTL2         0.2454     0.5972     3.8323 CTL2          1 ffa12   
      27 HAL2         1.3260     0.8625     3.8766 HAL2          1 ffa12   
      28 HAL2        -0.3403     1.5437     3.8770 HAL2          1 ffa12   
      29 CTL2        -0.0505    -0.1285     2.5245 CTL2          1 ffa12   
      30 HAL2        -1.1319    -0.3964     2.4934 HAL2          1 ffa12   
      31 HAL2         0.5328    -1.0761     2.4928 HAL2          1 ffa12   
      32 CTL2         0.2970     0.7256     1.3087 CTL2          1 ffa12   
      33 HAL2         1.3785     0.9935     1.3553 HAL2          1 ffa12   
      34 HAL2        -0.2859     1.6742     1.3557 HAL2          1 ffa12   
      35 CTL3         0.0000     0.0000     0.0000 CTL3          1 ffa12   
      36 HAL3        -1.0798    -0.2597    -0.0541 HAL3          1 ffa12   
      37 HAL3         0.5882    -0.9422    -0.0544 HAL3          1 ffa12   
      38 HAL3         0.2596     0.6363    -0.8708 HAL3          1 ffa12   
@<TRIPOS>BOND
       1        7        5 1
       2       34       32 1
       3       26       23 1
       4       29       26 1
       5       17       14 1
       6       31       29 1
       7       16       14 1
       8       38       35 1
       9       10        8 1
      10       30       29 1
      11       20       17 1
      12       23       20 1
      13       24       23 1
      14        8        5 1
      15       32       29 1
      16       28       26 1
      17       12       11 1
      18       33       32 1
      19        9        8 1
      20       36       35 1
      21        2        4 1
      22       15       14 1
      23       37       35 1
      24       18       17 1
      25       14       11 1
      26       35       32 1
      27       19       17 1
      28        5        4 1
      29        2        1 1
      30        6        5 1
      31       11        8 1
      32       13       11 1
      33       25       23 1
      34        3        4 1
      35       27       26 1
      36       22       20 1
      37       21       20 1
@<TRIPOS>SUBSTRUCTURE
       1 ffa12           1 RESIDUE    0 **** ROOT      0
