@<TRIPOS>MOLECULE
ffa16
50 49 1 0 1
SMALL
USER_CHARGES
@<TRIPOS>CRYSIN
    8.5332     8.2322    24.6872    90.0000    90.0000    90.0000  1  1
@<TRIPOS>ATOM
       1 CTL3        -0.0000    -0.0000   -17.4939 CTL3          1 ffa16     -0.270000
       2 CTL2         0.6096     0.6047   -16.3030 CTL2          1 ffa16     -0.180000
       3 CTL2        -0.1294    -0.0339   -15.2109 CTL2          1 ffa16     -0.180000
       4 CTL2         0.4959     0.5856   -14.0381 CTL2          1 ffa16     -0.180000
       5 CTL2        -0.2256    -0.0631   -12.9425 CTL2          1 ffa16     -0.180000
       6 CTL2         0.4193     0.5317   -11.7677 CTL2          1 ffa16     -0.180000
       7 CTL2        -0.2894    -0.1444   -10.6773 CTL2          1 ffa16     -0.180000
       8 CTL2         0.3409     0.4323    -9.4836 CTL2          1 ffa16     -0.180000
       9 CTL2        -0.4041    -0.2258    -8.3985 CTL2          1 ffa16     -0.180000
      10 CTL2         0.1524     0.3910    -7.1829 CTL2          1 ffa16     -0.180000
      11 CTL2        -0.6424    -0.2130    -6.0895 CTL2          1 ffa16     -0.180000
      12 CTL2        -0.0898     0.4023    -4.8604 CTL2          1 ffa16     -0.180000
      13 CTL2        -0.7902    -0.2449    -3.7129 CTL2          1 ffa16     -0.180000
      14 CTL2        -0.0550     0.2197    -2.4933 CTL2          1 ffa16     -0.180000
      15 CTL2        -0.6274    -0.4506    -1.2763 CTL2          1 ffa16     -0.180000
      16 CL           0.0000     0.0000     0.0000 CL            1 ffa16      0.890000
      17 OCL          1.1292     0.7127    -0.0658 OCL           1 ffa16     -0.680000
      18 HL           1.4771     0.9140    -0.9569 HL            1 ffa16      0.420000
      19 OBL         -0.4988    -0.3084     1.1085 OBL           1 ffa16     -0.630000
      20 HAL3         0.7380     0.6647   -18.5787 HAL3          1 ffa16      0.090000
      21 HAL3         0.1358    -1.0897   -17.5081 HAL3          1 ffa16      0.090000
      22 HAL3        -1.0780     0.2067   -17.5402 HAL3          1 ffa16      0.090000
      23 HAL2         0.4833     1.6965   -16.2855 HAL2          1 ffa16      0.090000
      24 HAL2         1.6860     0.3910   -16.2418 HAL2          1 ffa16      0.090000
      25 HAL2        -0.0016    -1.1253   -15.2147 HAL2          1 ffa16      0.090000
      26 HAL2        -1.2057     0.1810   -15.2589 HAL2          1 ffa16      0.090000
      27 HAL2         0.3608     1.6761   -14.0256 HAL2          1 ffa16      0.090000
      28 HAL2         1.5746     0.3790   -13.9935 HAL2          1 ffa16      0.090000
      29 HAL2        -0.1034    -1.1553   -12.9663 HAL2          1 ffa16      0.090000
      30 HAL2        -1.3018     0.1564   -12.9775 HAL2          1 ffa16      0.090000
      31 HAL2         0.2821     1.6214   -11.7384 HAL2          1 ffa16      0.090000
      32 HAL2         1.4983     0.3256   -11.7433 HAL2          1 ffa16      0.090000
      33 HAL2        -0.1584    -1.2345   -10.7209 HAL2          1 ffa16      0.090000
      34 HAL2        -1.3679     0.0655   -10.7157 HAL2          1 ffa16      0.090000
      35 HAL2         0.2232     1.5247    -9.4625 HAL2          1 ffa16      0.090000
      36 HAL2         1.4152     0.2086    -9.4436 HAL2          1 ffa16      0.090000
      37 HAL2        -0.2527    -1.3134    -8.4161 HAL2          1 ffa16      0.090000
      38 HAL2        -1.4831    -0.0372    -8.4882 HAL2          1 ffa16      0.090000
      39 HAL2         0.0427     1.4838    -7.2064 HAL2          1 ffa16      0.090000
      40 HAL2         1.2240     0.1664    -7.0937 HAL2          1 ffa16      0.090000
      41 HAL2        -0.5220    -1.3046    -6.0925 HAL2          1 ffa16      0.090000
      42 HAL2        -1.7114     0.0058    -6.2062 HAL2          1 ffa16      0.090000
      43 HAL2        -0.2446     1.4891    -4.8674 HAL2          1 ffa16      0.090000
      44 HAL2         0.9949     0.2293    -4.8202 HAL2          1 ffa16      0.090000
      45 HAL2        -0.7457    -1.3379    -3.8055 HAL2          1 ffa16      0.090000
      46 HAL2        -1.8471     0.0455    -3.7028 HAL2          1 ffa16      0.090000
      47 HAL2        -0.1192     1.3128    -2.4210 HAL2          1 ffa16      0.090000
      48 HAL2         1.0052    -0.0431    -2.6098 HAL2          1 ffa16      0.090000
      49 HAL2        -0.4996    -1.5357    -1.3708 HAL2          1 ffa16      0.090000
      50 HAL2        -1.7017    -0.2323    -1.2350 HAL2          1 ffa16      0.090000
@<TRIPOS>BOND
       1        2       23 1
       2        3       26 1
       3       38        9 1
       4       21        1 1
       5        5        6 1
       6       39       10 1
       7       43       12 1
       8        5       29 1
       9        6       31 1
      10       50       15 1
      11        5       30 1
      12       12       13 1
      13       15       16 1
      14       17       18 1
      15       14       15 1
      16        2        1 1
      17       44       12 1
      18       41       11 1
      19       20        1 1
      20        4       28 1
      21       13       14 1
      22       42       11 1
      23        2        3 1
      24        8        9 1
      25        4       27 1
      26        9       10 1
      27        6        7 1
      28        3        4 1
      29       36        8 1
      30        2       24 1
      31        3       25 1
      32       35        8 1
      33       10       11 1
      34       37        9 1
      35       22        1 1
      36       46       13 1
      37        6       32 1
      38       49       15 1
      39        7       33 1
      40       40       10 1
      41       17       16 1
      42        7       34 1
      43        4        5 1
      44        7        8 1
      45       45       13 1
      46       47       14 1
      47       48       14 1
      48       11       12 1
      49       19       16 1
@<TRIPOS>SUBSTRUCTURE
       1 ffa16           1 RESIDUE    0 **** ROOT      0
