@<TRIPOS>MOLECULE
chead
9 8 1 0 1
SMALL
USER_CHARGES
@<TRIPOS>CRYSIN
    8.3136     7.3595     8.1123    90.0000    90.0000    90.0000  1  1
@<TRIPOS>ATOM
       1 CTL2         0.0000     0.0000    -0.0000 CTL2          1 chead      0.006000
       2 HAL2        -0.2820    -1.0126    -0.3702 HAL2          1 chead      0.107000
       3 OHL         -0.9145     0.9698    -0.5217 OHL           1 chead     -0.560000
       4 HOL         -0.9146     0.9681    -1.4711 HOL           1 chead      0.340000
       5 HAL2         0.0000     0.0000     1.5060 HAL2          1 chead      0.107000
       6 HAL3         2.3990    -0.6711     0.0416 HAL3          1 chead      0.100000
       7 CTL3         1.3837     0.3492    -0.4966 CTL3          1 chead     -0.300000
       8 HAL3         1.4226     0.4388    -1.6063 HAL3          1 chead      0.100000
       9 HAL3         1.6505     1.3469    -0.0701 HAL3          1 chead      0.100000
@<TRIPOS>BOND
       1        5        1 1
       2        7        1 1
       3        3        4 1
       4        7        8 1
       5        2        1 1
       6        3        1 1
       7        6        7 1
       8        7        9 1
@<TRIPOS>SUBSTRUCTURE
       1 chead           1 RESIDUE    0 **** ROOT      0
