@<TRIPOS>MOLECULE
ffa16
6 5 1 0 1
SMALL
NO_CHARGES
@<TRIPOS>CRYSIN
    8.5332     8.2322    24.6872    90.0000    90.0000    90.0000  1  1
@<TRIPOS>ATOM
       1 COOH         0.1500     0.0960     0.2470 COOH          1 ffa16   
       2 C3          -0.4910    -0.1590    -2.4940 C3            1 ffa16   
       3 C3          -0.1930     0.1930    -6.0440 C3            1 ffa16   
       4 C3          -0.1180     0.0210    -9.5200 C3            1 ffa16   
       5 C3           0.2300     0.3510   -12.9160 C3            1 ffa16   
       6 C3           0.1600     0.1900   -16.3360 C3            1 ffa16   
@<TRIPOS>BOND
       1        5        6 1
       2        1        2 1
       3        5        4 1
       4        2        3 1
       5        3        4 1
@<TRIPOS>SUBSTRUCTURE
       1 ffa16           1 RESIDUE    0 **** ROOT      0
