@<TRIPOS>MOLECULE
ffa16
50 49 1 0 1
SMALL
NO_CHARGES
@<TRIPOS>CRYSIN
    7.8953     8.9632    24.7208    90.0000    90.0000    90.0000  1  1
@<TRIPOS>ATOM
       1 CTL3         0.0000     0.0000     0.0000 CTL3          1 ffa16   
       2 CTL2        -0.7639     0.5786     1.1123 CTL2          1 ffa16   
       3 CTL2        -0.0221     0.1067     2.2843 CTL2          1 ffa16   
       4 CTL2        -0.8033     0.6955     3.3768 CTL2          1 ffa16   
       5 CTL2        -0.0555     0.2431     4.5506 CTL2          1 ffa16   
       6 CTL2        -0.8168     0.8566     5.6433 CTL2          1 ffa16   
       7 CTL2        -0.0448     0.4220     6.8111 CTL2          1 ffa16   
       8 CTL2        -0.7860     1.0271     7.9244 CTL2          1 ffa16   
       9 CTL2        -0.0236     0.5528     9.0904 CTL2          1 ffa16   
      10 CTL2        -0.7889     1.0797    10.2325 CTL2          1 ffa16   
      11 CTL2        -0.0691     0.5462    11.4112 CTL2          1 ffa16   
      12 CTL2        -0.8326     1.0709    12.5672 CTL2          1 ffa16   
      13 CTL2        -0.0926     0.6439    13.7905 CTL2          1 ffa16   
      14 CTL2        -0.7477     1.3776    14.9203 CTL2          1 ffa16   
      15 CTL2        -0.0152     1.0867    16.1996 CTL2          1 ffa16   
      16 CL          -0.6356     1.7243    17.3971 CL            1 ffa16   
      17 OCL         -1.5705     2.6603    17.2041 OCL           1 ffa16   
      18 HL          -1.8090     2.8668    16.2788 HL            1 ffa16   
      19 OBL         -0.2682     1.4159    18.5558 OBL           1 ffa16   
      20 HAL3        -0.7673     0.4660    -1.1650 HAL3          1 ffa16   
      21 HAL3         1.0353     0.3664    -0.0127 HAL3          1 ffa16   
      22 HAL3         0.0305    -1.0964     0.0632 HAL3          1 ffa16   
      23 HAL2        -1.8033     0.2212     1.1273 HAL2          1 ffa16   
      24 HAL2        -0.7878     1.6764     1.0642 HAL2          1 ffa16   
      25 HAL2         1.0160     0.4668     2.2828 HAL2          1 ffa16   
      26 HAL2         0.0000    -0.9900     2.3456 HAL2          1 ffa16   
      27 HAL2        -1.8393     0.3294     3.3877 HAL2          1 ffa16   
      28 HAL2        -0.8340     1.7924     3.3118 HAL2          1 ffa16   
      29 HAL2         0.9853     0.5960     4.5297 HAL2          1 ffa16   
      30 HAL2        -0.0383    -0.8531     4.6248 HAL2          1 ffa16   
      31 HAL2        -1.8523     0.4903     5.6713 HAL2          1 ffa16   
      32 HAL2        -0.8472     1.9516     5.5582 HAL2          1 ffa16   
      33 HAL2         0.9929     0.7810     6.7696 HAL2          1 ffa16   
      34 HAL2        -0.0176    -0.6747     6.8821 HAL2          1 ffa16   
      35 HAL2        -1.8279     0.6783     7.9421 HAL2          1 ffa16   
      36 HAL2        -0.7988     2.1229     7.8555 HAL2          1 ffa16   
      37 HAL2         1.0064     0.9337     9.0726 HAL2          1 ffa16   
      38 HAL2         0.0263    -0.5448     9.1108 HAL2          1 ffa16   
      39 HAL2        -1.8313     0.7343    10.2051 HAL2          1 ffa16   
      40 HAL2        -0.8022     2.1779    10.2129 HAL2          1 ffa16   
      41 HAL2         0.9709     0.8992    11.4113 HAL2          1 ffa16   
      42 HAL2        -0.0497    -0.5509    11.4033 HAL2          1 ffa16   
      43 HAL2        -1.8601     0.6845    12.5610 HAL2          1 ffa16   
      44 HAL2        -0.8971     2.1659    12.4968 HAL2          1 ffa16   
      45 HAL2         0.9682     0.9146    13.7093 HAL2          1 ffa16   
      46 HAL2        -0.1504    -0.4446    13.9065 HAL2          1 ffa16   
      47 HAL2        -1.8037     1.0857    14.9832 HAL2          1 ffa16   
      48 HAL2        -0.7137     2.4527    14.6977 HAL2          1 ffa16   
      49 HAL2         1.0202     1.4364    16.1078 HAL2          1 ffa16   
      50 HAL2         0.0000    -0.0000    16.3494 HAL2          1 ffa16   
@<TRIPOS>BOND
       1       16       17 1
       2        5       29 1
       3        4        5 1
       4       10        9 1
       5        6        7 1
       6        8        7 1
       7       33        7 1
       8       14       15 1
       9        2       24 1
      10       11       10 1
      11       11       41 1
      12       10       39 1
      13       37        9 1
      14       10       40 1
      15       14       47 1
      16       35        8 1
      17       17       18 1
      18       14       48 1
      19       12       43 1
      20       12       13 1
      21        3        4 1
      22        6       31 1
      23       34        7 1
      24       22        1 1
      25        3       25 1
      26        4       28 1
      27        2       23 1
      28        4       27 1
      29        9        8 1
      30       15       16 1
      31       13       46 1
      32        2        3 1
      33        5        6 1
      34       36        8 1
      35       11       12 1
      36       11       42 1
      37       38        9 1
      38       13       45 1
      39       15       49 1
      40       20        1 1
      41       21        1 1
      42       13       14 1
      43        2        1 1
      44        5       30 1
      45        6       32 1
      46        3       26 1
      47       16       19 1
      48       15       50 1
      49       12       44 1
@<TRIPOS>SUBSTRUCTURE
       1 ffa16           1 RESIDUE    0 **** ROOT      0
