@<TRIPOS>MOLECULE
ffa16
50 49 1 0 1
SMALL
NO_CHARGES
@<TRIPOS>CRYSIN
    8.4822     8.4586    24.6753    90.0000    90.0000    90.0000  1  1
@<TRIPOS>ATOM
       1 CTL3         0.0000     0.0000     0.0000 CTL3          1 ffa16   
       2 CTL2         0.6086     0.5927     1.1974 CTL2          1 ffa16   
       3 CTL2        -0.1204    -0.0685     2.2827 CTL2          1 ffa16   
       4 CTL2         0.5037     0.5396     3.4622 CTL2          1 ffa16   
       5 CTL2        -0.2078    -0.1316     4.5508 CTL2          1 ffa16   
       6 CTL2         0.4362     0.4518     5.7318 CTL2          1 ffa16   
       7 CTL2        -0.2622    -0.2466     6.8148 CTL2          1 ffa16   
       8 CTL2         0.3674     0.3183     8.0145 CTL2          1 ffa16   
       9 CTL2        -0.3675    -0.3623     9.0926 CTL2          1 ffa16   
      10 CTL2         0.1880     0.2417    10.3150 CTL2          1 ffa16   
      11 CTL2        -0.5972    -0.3854    11.4024 CTL2          1 ffa16   
      12 CTL2        -0.0455     0.2169    12.6383 CTL2          1 ffa16   
      13 CTL2        -0.7356    -0.4534    13.7788 CTL2          1 ffa16   
      14 CTL2         0.0000     0.0000    15.0024 CTL2          1 ffa16   
      15 CTL2        -0.5617    -0.6932    16.2114 CTL2          1 ffa16   
      16 CL           0.0664    -0.2555    17.4919 CL            1 ffa16   
      17 OCL          1.1888     0.4683    17.4325 OCL           1 ffa16   
      18 HL           1.5315     0.6857    16.5431 HL            1 ffa16   
      19 OBL         -0.4253    -0.5846    18.5976 OBL           1 ffa16   
      20 HAL3         0.7278     0.6872    -1.0776 HAL3          1 ffa16   
      21 HAL3         0.1456    -1.0881    -0.0306 HAL3          1 ffa16   
      22 HAL3        -1.0800     0.1975    -0.0393 HAL3          1 ffa16   
      23 HAL2         0.4725     1.6830     1.2313 HAL2          1 ffa16   
      24 HAL2         1.6871     0.3880     1.2515 HAL2          1 ffa16   
      25 HAL2         0.0173    -1.1584     2.2625 HAL2          1 ffa16   
      26 HAL2        -1.1988     0.1373     2.2418 HAL2          1 ffa16   
      27 HAL2         0.3587     1.6285     3.4911 HAL2          1 ffa16   
      28 HAL2         1.5844     0.3422     3.4998 HAL2          1 ffa16   
      29 HAL2        -0.0757    -1.2222     4.5105 HAL2          1 ffa16   
      30 HAL2        -1.2860     0.0785     4.5230 HAL2          1 ffa16   
      31 HAL2         0.2893     1.5397     5.7776 HAL2          1 ffa16   
      32 HAL2         1.5171     0.2552     5.7492 HAL2          1 ffa16   
      33 HAL2        -0.1215    -1.3347     6.7548 HAL2          1 ffa16   
      34 HAL2        -1.3427    -0.0460     6.7834 HAL2          1 ffa16   
      35 HAL2         0.2399     1.4092     8.0521 HAL2          1 ffa16   
      36 HAL2         1.4438     0.1038     8.0473 HAL2          1 ffa16   
      37 HAL2        -0.2063    -1.4481     9.0585 HAL2          1 ffa16   
      38 HAL2        -1.4485    -0.1823     9.0096 HAL2          1 ffa16   
      39 HAL2         0.0683     1.3337    10.3080 HAL2          1 ffa16   
      40 HAL2         1.2619     0.0257    10.3970 HAL2          1 ffa16   
      41 HAL2        -0.4668    -1.4757    11.3830 HAL2          1 ffa16   
      42 HAL2        -1.6685    -0.1747    11.2928 HAL2          1 ffa16   
      43 HAL2        -0.2102     1.3022    12.6478 HAL2          1 ffa16   
      44 HAL2         1.0409     0.0532    12.6720 HAL2          1 ffa16   
      45 HAL2        -0.6815    -1.5444    13.6700 HAL2          1 ffa16   
      46 HAL2        -1.7951    -0.1728    13.7970 HAL2          1 ffa16   
      47 HAL2        -0.0738     1.0913    15.0908 HAL2          1 ffa16   
      48 HAL2         1.0620    -0.2514    14.8781 HAL2          1 ffa16   
      49 HAL2        -0.4245    -1.7756    16.1007 HAL2          1 ffa16   
      50 HAL2        -1.6378    -0.4853    16.2599 HAL2          1 ffa16   
@<TRIPOS>BOND
       1        2        3 1
       2       10       40 1
       3        9       37 1
       4        8       35 1
       5       15       50 1
       6       25        3 1
       7       10       39 1
       8       16       17 1
       9       21        1 1
      10       16       19 1
      11        6       32 1
      12       23        2 1
      13        6        7 1
      14       27        4 1
      15       15       16 1
      16       12       13 1
      17        7       34 1
      18        5        6 1
      19       26        3 1
      20       22        1 1
      21        8        9 1
      22        9       10 1
      23        9       38 1
      24       10       11 1
      25        8       36 1
      26       14       15 1
      27       15       49 1
      28        5       30 1
      29       13       14 1
      30       11       42 1
      31        2        1 1
      32        3        4 1
      33       13       45 1
      34       13       46 1
      35        7        8 1
      36        4       28 1
      37        7       33 1
      38        6       31 1
      39        5       29 1
      40       12       44 1
      41       17       18 1
      42       24        2 1
      43       14       48 1
      44       11       41 1
      45       14       47 1
      46       20        1 1
      47       12       43 1
      48       11       12 1
      49        5        4 1
@<TRIPOS>SUBSTRUCTURE
       1 ffa16           1 RESIDUE    0 **** ROOT      0
