@<TRIPOS>MOLECULE
chol
74 77 1 0 1
SMALL
NO_CHARGES
@<TRIPOS>CRYSIN
    9.4604    10.6031    23.5815    90.0000    90.0000    90.0000  1  1
@<TRIPOS>ATOM
       1 CTL1        -0.2459     0.9019    15.8265 CTL1          1 chol    
       2 HAL1        -1.1812     0.4230    15.4555 HAL1          1 chol    
       3 OHL         -0.2459     0.9019    17.2579 OHL           1 chol    
       4 HOL         -0.3085     0.0196    17.6029 HOL           1 chol    
       5 CTL2        -0.1485     2.3009    15.2776 CTL2          1 chol    
       6 HAL2         0.7471     2.8302    15.6775 HAL2          1 chol    
       7 HAL2        -1.0488     2.8590    15.6276 HAL2          1 chol    
       8 CTL2        -0.1671     2.3140    13.7547 CTL2          1 chol    
       9 HAL2        -0.0920     3.3571    13.3706 HAL2          1 chol    
      10 HAL2        -1.1575     1.9155    13.4364 HAL2          1 chol    
      11 CTL1         0.9301     1.3998    13.1078 CTL1          1 chol    
      12 CTL3         2.3355     2.0626    13.2910 CTL3          1 chol    
      13 HAL3         2.5949     2.2199    14.3648 HAL3          1 chol    
      14 HAL3         2.4073     3.0150    12.7152 HAL3          1 chol    
      15 HAL3         3.0921     1.3609    12.8696 HAL3          1 chol    
      16 CEL1         0.9846     0.0754    13.8240 CEL1          1 chol    
      17 CTL2         0.9477     0.1012    15.3600 CTL2          1 chol    
      18 HAL2         0.9664    -0.9219    15.8003 HAL2          1 chol    
      19 HAL2         1.8655     0.6338    15.7101 HAL2          1 chol    
      20 CEL1         1.0872    -1.0915    13.2090 CEL1          1 chol    
      21 HEL1         1.1421    -2.0043    13.8235 HEL1          1 chol    
      22 CTL2         1.1396    -1.2375    11.7061 CTL2          1 chol    
      23 HAL2         1.8917    -2.0047    11.4121 HAL2          1 chol    
      24 HAL2         0.1419    -1.6085    11.3788 HAL2          1 chol    
      25 CTL1         1.3929     0.0606    10.9751 CTL1          1 chol    
      26 HAL1         2.4785     0.3139    11.0376 HAL1          1 chol    
      27 CTL1         0.5726     1.1795    11.6167 CTL1          1 chol    
      28 HAL1        -0.4862     0.8258    11.6075 HAL1          1 chol    
      29 CTL2         0.5877     2.4673    10.7683 CTL2          1 chol    
      30 HAL2         1.5774     2.9725    10.8522 HAL2          1 chol    
      31 HAL2        -0.1706     3.1579    11.2034 HAL2          1 chol    
      32 CTL2         0.2187     2.2669     9.3017 CTL2          1 chol    
      33 HAL2         0.2487     3.2229     8.7306 HAL2          1 chol    
      34 HAL2        -0.8283     1.8870     9.2694 HAL2          1 chol    
      35 CTL1         1.1309     1.1849     8.6660 CTL1          1 chol    
      36 CTL3         2.6308     1.6980     8.6126 CTL3          1 chol    
      37 HAL3         2.9267     2.0767     9.6189 HAL3          1 chol    
      38 HAL3         2.7891     2.4558     7.8118 HAL3          1 chol    
      39 HAL3         3.2792     0.8208     8.3793 HAL3          1 chol    
      40 CTL1         0.9947    -0.0934     9.5068 CTL1          1 chol    
      41 HAL1        -0.0880    -0.3521     9.5070 HAL1          1 chol    
      42 CTL2         1.6973    -1.1816     8.6780 CTL2          1 chol    
      43 HAL2         2.7818    -1.2992     8.9036 HAL2          1 chol    
      44 HAL2         1.1934    -2.1535     8.8866 HAL2          1 chol    
      45 CTL2         1.3907    -0.7877     7.2167 CTL2          1 chol    
      46 HAL2         2.2824    -0.8387     6.5482 HAL2          1 chol    
      47 HAL2         0.6307    -1.5042     6.8233 HAL2          1 chol    
      48 CTL1         0.7187     0.6589     7.2634 CTL1          1 chol    
      49 HAL1        -0.3807     0.4899     7.3085 HAL1          1 chol    
      50 CTL1         0.9739     1.4648     5.9868 CTL1          1 chol    
      51 HAL1         2.0764     1.6061     5.8985 HAL1          1 chol    
      52 CTL3         0.3402     2.8633     6.0606 CTL3          1 chol    
      53 HAL3         0.5249     3.4495     5.1293 HAL3          1 chol    
      54 HAL3         0.6810     3.4182     6.9644 HAL3          1 chol    
      55 HAL3        -0.7623     2.7235     6.1499 HAL3          1 chol    
      56 CTL2         0.5197     0.6433     4.7656 CTL2          1 chol    
      57 HAL2         0.8487    -0.4199     4.8502 HAL2          1 chol    
      58 HAL2        -0.5939     0.6451     4.7603 HAL2          1 chol    
      59 CTL2         0.9753     1.2555     3.4533 CTL2          1 chol    
      60 HAL2         0.5904     2.2905     3.3090 HAL2          1 chol    
      61 HAL2         2.0910     1.3120     3.4750 HAL2          1 chol    
      62 CTL2         0.5491     0.2345     2.2126 CTL2          1 chol    
      63 HAL2        -0.4728    -0.1899     2.3552 HAL2          1 chol    
      64 HAL2         1.2720    -0.6141     2.2098 HAL2          1 chol    
      65 CTL1         0.6742     0.8909     0.9986 CTL1          1 chol    
      66 HAL1         0.3294     1.9522     0.9929 HAL1          1 chol    
      67 CTL3         2.2157     0.6734     0.6184 CTL3          1 chol    
      68 HAL3         2.3162     1.2021    -0.3575 HAL3          1 chol    
      69 HAL3         2.5445    -0.3916     0.6068 HAL3          1 chol    
      70 HAL3         2.8358     1.2170     1.3704 HAL3          1 chol    
      71 CTL3         0.0000     0.0000     0.0000 CTL3          1 chol    
      72 HAL3         0.1018     0.5257    -0.9786 HAL3          1 chol    
      73 HAL3        -1.0493    -0.2624     0.2658 HAL3          1 chol    
      74 HAL3         0.5855    -0.9492    -0.0608 HAL3          1 chol    
@<TRIPOS>BOND
       1       59       61 1
       2       48       35 1
       3       52       55 1
       4        1       17 1
       5        8        9 1
       6       29       32 1
       7       45       47 1
       8        5        6 1
       9       42       44 1
      10       48       49 1
      11       45       46 1
      12       25       27 1
      13       48       50 1
      14       52       54 1
      15       20       21 1
      16       62       65 1
      17       62       63 1
      18       71       74 1
      19       45       48 1
      20       16       17 1
      21       50       56 1
      22       70       67 1
      23       32       33 1
      24       16       20 1
      25       40       42 1
      26       42       45 1
      27       29       31 1
      28       12       14 1
      29       38       36 1
      30       11       16 1
      31       12       13 1
      32       12       15 1
      33       56       57 1
      34       42       43 1
      35       72       71 1
      36       36       35 1
      37        1        3 1
      38        8       11 1
      39       27       28 1
      40       62       64 1
      41       32       34 1
      42       67       68 1
      43       69       67 1
      44       32       35 1
      45       71       73 1
      46       11       27 1
      47        5        7 1
      48        8       10 1
      49       17       18 1
      50       37       36 1
      51        5        8 1
      52       39       36 1
      53       27       29 1
      54        3        4 1
      55       25       40 1
      56       50       52 1
      57       20       22 1
      58       11       12 1
      59       56       59 1
      60       22       25 1
      61       59       60 1
      62       29       30 1
      63       22       24 1
      64       65       67 1
      65       50       51 1
      66       22       23 1
      67       17       19 1
      68       56       58 1
      69       59       62 1
      70       25       26 1
      71       65       66 1
      72       52       53 1
      73        1        2 1
      74        1        5 1
      75       71       65 1
      76       40       41 1
      77       40       35 1
@<TRIPOS>SUBSTRUCTURE
       1 chol            1 RESIDUE    0 **** ROOT      0
