@<TRIPOS>MOLECULE
chol
74 77 1 0 1
SMALL
NO_CHARGES
@<TRIPOS>CRYSIN
   10.3580     9.5026    23.5708    90.0000    90.0000    90.0000  1  1
@<TRIPOS>ATOM
       1 CTL1         0.0000     0.0000     0.0000 CTL1          1 chol    
       2 HAL1         0.6775    -0.8277    -0.3127 HAL1          1 chol    
       3 OHL         -0.0185     0.0867     1.4286 OHL           1 chol    
       4 HOL          0.8515     0.2408     1.7762 HOL           1 chol    
       5 CTL2        -1.3790    -0.2464    -0.5528 CTL2          1 chol    
       6 HAL2        -2.0972     0.5334    -0.2088 HAL2          1 chol    
       7 HAL2        -1.7301    -1.2245    -0.1473 HAL2          1 chol    
       8 CTL2        -1.3680    -0.3596    -2.0716 CTL2          1 chol    
       9 HAL2        -2.3971    -0.5394    -2.4589 HAL2          1 chol    
      10 HAL2        -0.7576    -1.2554    -2.3283 HAL2          1 chol    
      11 CTL1        -0.7090     0.8707    -2.7859 CTL1          1 chol    
      12 CTL3        -1.6667     2.1042    -2.6896 CTL3          1 chol    
      13 HAL3        -1.8909     2.3871    -1.6339 HAL3          1 chol    
      14 HAL3        -2.6041     1.9295    -3.2681 HAL3          1 chol    
      15 HAL3        -1.1430     2.9697    -3.1576 HAL3          1 chol    
      16 CEL1         0.5617     1.2586    -2.0755 CEL1          1 chol    
      17 CTL2         0.5248     1.3101    -0.5401 CTL2          1 chol    
      18 HAL2         1.5130     1.5801    -0.1026 HAL2          1 chol    
      19 HAL2        -0.2009     2.1076    -0.2472 HAL2          1 chol    
      20 CEL1         1.6854     1.5781    -2.6965 CEL1          1 chol    
      21 HEL1         2.5558     1.8696    -2.0873 HEL1          1 chol    
      22 CTL2         1.8357     1.5702    -4.1998 CTL2          1 chol    
      23 HAL2         2.4227     2.4535    -4.5404 HAL2          1 chol    
      24 HAL2         2.4211     0.6607    -4.4650 HAL2          1 chol    
      25 CTL1         0.5232     1.4868    -4.9441 CTL1          1 chol    
      26 HAL1         0.0369     2.4918    -4.9489 HAL1          1 chol    
      27 CTL1        -0.3963     0.4808    -4.2522 CTL1          1 chol    
      28 HAL1         0.1815    -0.4728    -4.1960 HAL1          1 chol    
      29 CTL2        -1.6449     0.1607    -5.0990 CTL2          1 chol    
      30 HAL2        -2.3562     1.0181    -5.0761 HAL2          1 chol    
      31 HAL2        -2.1575    -0.7033    -4.6172 HAL2          1 chol    
      32 CTL2        -1.3494    -0.2434    -6.5401 CTL2          1 chol    
      33 HAL2        -2.2811    -0.4592    -7.1112 HAL2          1 chol    
      34 HAL2        -0.7483    -1.1810    -6.5077 HAL2          1 chol    
      35 CTL1        -0.4861     0.8444    -7.2318 CTL1          1 chol    
      36 CTL3        -1.3154     2.1885    -7.3776 CTL3          1 chol    
      37 HAL3        -1.7629     2.4542    -6.3913 HAL3          1 chol    
      38 HAL3        -2.0791     2.1273    -8.1861 HAL3          1 chol    
      39 HAL3        -0.5992     2.9987    -7.6513 HAL3          1 chol    
      40 CTL1         0.7799     1.0441    -6.3851 CTL1          1 chol    
      41 HAL1         1.2702     0.0469    -6.3181 HAL1          1 chol    
      42 CTL2         1.6978     1.9175    -7.2567 CTL2          1 chol    
      43 HAL2         1.5712     3.0128    -7.0987 HAL2          1 chol    
      44 HAL2         2.7539     1.6534    -7.0179 HAL2          1 chol    
      45 CTL2         1.3998     1.4437    -8.6958 CTL2          1 chol    
      46 HAL2         1.2622     2.2825    -9.4183 HAL2          1 chol    
      47 HAL2         2.2707     0.8376    -9.0420 HAL2          1 chol    
      48 CTL1         0.1357     0.4738    -8.6065 CTL1          1 chol    
      49 HAL1         0.5415    -0.5566    -8.4936 HAL1          1 chol    
      50 CTL1        -0.6900     0.4676    -9.8959 CTL1          1 chol    
      51 HAL1        -1.0689     1.5046   -10.0522 HAL1          1 chol    
      52 CTL3        -1.9160    -0.4527    -9.7820 CTL3          1 chol    
      53 HAL3        -2.5164    -0.4583   -10.7225 HAL3          1 chol    
      54 HAL3        -2.5438    -0.1882    -8.9006 HAL3          1 chol    
      55 HAL3        -1.5386    -1.4899    -9.6247 HAL3          1 chol    
      56 CTL2         0.2268     0.1322   -11.0872 CTL2          1 chol    
      57 HAL2         1.1906     0.6917   -11.0240 HAL2          1 chol    
      58 HAL2         0.4698    -0.9527   -11.0236 HAL2          1 chol    
      59 CTL2        -0.4535     0.3615   -12.4248 CTL2          1 chol    
      60 HAL2        -1.3767    -0.2498   -12.5442 HAL2          1 chol    
      61 HAL2        -0.7541     1.4367   -12.4722 HAL2          1 chol    
      62 CTL2         0.6521     0.0962   -13.6375 CTL2          1 chol    
      63 HAL2         1.2888    -0.7966   -13.4322 HAL2          1 chol    
      64 HAL2         1.3211     0.9866   -13.6857 HAL2          1 chol    
      65 CTL1        -0.0000     0.0000   -14.8564 CTL1          1 chol    
      66 HAL1        -0.9594    -0.5696   -14.8399 HAL1          1 chol    
      67 CTL3        -0.1216     1.5256   -15.3315 CTL3          1 chol    
      68 HAL3        -0.6468     1.4479   -16.3113 HAL3          1 chol    
      69 HAL3         0.8452     2.0794   -15.3642 HAL3          1 chol    
      70 HAL3        -0.7978     2.0553   -14.6190 HAL3          1 chol    
      71 CTL3         1.0301    -0.5208   -15.8120 CTL3          1 chol    
      72 HAL3         0.5076    -0.5967   -16.7946 HAL3          1 chol    
      73 HAL3         1.5132    -1.4686   -15.4819 HAL3          1 chol    
      74 HAL3         1.8281     0.2544   -15.9097 HAL3          1 chol    
@<TRIPOS>BOND
       1       29       32 1
       2        1        5 1
       3       50       52 1
       4       56       59 1
       5        8       10 1
       6        1       17 1
       7       32       33 1
       8       65       67 1
       9       52       53 1
      10       65       66 1
      11       52       54 1
      12       62       65 1
      13       36       39 1
      14       48       49 1
      15       29       31 1
      16       45       48 1
      17       52       55 1
      18       67       68 1
      19       25       26 1
      20       42       45 1
      21       25       40 1
      22       36       38 1
      23       11       27 1
      24       32       34 1
      25       56       58 1
      26       45       46 1
      27       67       70 1
      28       11       16 1
      29        3        4 1
      30        5        6 1
      31       11       12 1
      32       48       50 1
      33       65       71 1
      34        8       11 1
      35       20       22 1
      36       62       64 1
      37       42       43 1
      38       50       51 1
      39        8        9 1
      40       35       48 1
      41       71       72 1
      42       62       63 1
      43       36       35 1
      44       45       47 1
      45       29       30 1
      46        5        8 1
      47       16       20 1
      48       22       23 1
      49       42       44 1
      50       37       36 1
      51       50       56 1
      52       42       40 1
      53       12       14 1
      54       41       40 1
      55       12       15 1
      56        5        7 1
      57       16       17 1
      58        1        2 1
      59       25       27 1
      60       67       69 1
      61       27       29 1
      62       12       13 1
      63       71       73 1
      64       35       32 1
      65       27       28 1
      66       22       24 1
      67       17       19 1
      68       59       61 1
      69        1        3 1
      70       22       25 1
      71       71       74 1
      72       17       18 1
      73       59       60 1
      74       59       62 1
      75       35       40 1
      76       20       21 1
      77       56       57 1
@<TRIPOS>SUBSTRUCTURE
       1 chol            1 RESIDUE    0 **** ROOT      0
