@<TRIPOS>MOLECULE
chol
74 77 1 0 1
SMALL
NO_CHARGES
@<TRIPOS>CRYSIN
   10.8469     9.8582    23.3946    90.0000    90.0000    90.0000  1  1
@<TRIPOS>ATOM
       1 CTL1         0.0000     0.0000     0.0000 CTL1          1 chol    
       2 HAL1        -0.3399     0.9929     0.3748 HAL1          1 chol    
       3 OHL          0.1712     0.0597    -1.4199 OHL           1 chol    
       4 HOL          0.8044     0.7240    -1.6633 HOL           1 chol    
       5 CTL2        -1.0055    -1.0520     0.3878 CTL2          1 chol    
       6 HAL2        -0.7255    -2.0493    -0.0235 HAL2          1 chol    
       7 HAL2        -1.9811    -0.7647    -0.0706 HAL2          1 chol    
       8 CTL2        -1.2098    -1.1109     1.8959 CTL2          1 chol    
       9 HAL2        -1.9548    -1.8960     2.1603 HAL2          1 chol    
      10 HAL2        -1.6388    -0.1309     2.2064 HAL2          1 chol    
      11 CTL1         0.1212    -1.3099     2.7003 CTL1          1 chol    
      12 CTL3         0.6280    -2.7786     2.5149 CTL3          1 chol    
      13 HAL3         0.8207    -3.0301     1.4451 HAL3          1 chol    
      14 HAL3        -0.0770    -3.5071     2.9797 HAL3          1 chol    
      15 HAL3         1.6000    -2.8660     3.0533 HAL3          1 chol    
      16 CEL1         1.1970    -0.4126     2.1458 CEL1          1 chol    
      17 CTL2         1.3369    -0.3393     0.6172 CTL2          1 chol    
      18 HAL2         2.1384     0.3662     0.2997 HAL2          1 chol    
      19 HAL2         1.6236    -1.3571     0.2561 HAL2          1 chol    
      20 CEL1         2.0331     0.2864     2.8960 CEL1          1 chol    
      21 HEL1         2.8007     0.8973     2.3948 HEL1          1 chol    
      22 CTL2         1.9942     0.2855     4.4063 CTL2          1 chol    
      23 HAL2         3.0255     0.2516     4.8257 HAL2          1 chol    
      24 HAL2         1.5392     1.2517     4.7221 HAL2          1 chol    
      25 CTL1         1.1462    -0.8184     4.9945 CTL1          1 chol    
      26 HAL1         1.7142    -1.7789     4.9597 HAL1          1 chol    
      27 CTL1        -0.1432    -0.9612     4.1863 CTL1          1 chol    
      28 HAL1        -0.6144     0.0509     4.1813 HAL1          1 chol    
      29 CTL2        -1.1608    -1.8897     4.8798 CTL2          1 chol    
      30 HAL2        -0.8371    -2.9520     4.7895 HAL2          1 chol    
      31 HAL2        -2.1244    -1.7928     4.3290 HAL2          1 chol    
      32 CTL2        -1.4447    -1.5452     6.3386 CTL2          1 chol    
      33 HAL2        -2.1801    -2.2456     6.7961 HAL2          1 chol    
      34 HAL2        -1.8915    -0.5247     6.3602 HAL2          1 chol    
      35 CTL1        -0.1181    -1.4942     7.1415 CTL1          1 chol    
      36 CTL3         0.5326    -2.9389     7.2131 CTL3          1 chol    
      37 HAL3         0.5831    -3.3715     6.1865 HAL3          1 chol    
      38 HAL3        -0.0000    -3.6065     7.9280 HAL3          1 chol    
      39 HAL3         1.5794    -2.8195     7.5796 HAL3          1 chol    
      40 CTL1         0.8089    -0.4845     6.4482 CTL1          1 chol    
      41 HAL1         0.2542     0.4803     6.4217 HAL1          1 chol    
      42 CTL2         1.9734    -0.2848     7.4326 CTL2          1 chol    
      43 HAL2         2.8269    -0.9838     7.2786 HAL2          1 chol    
      44 HAL2         2.3527     0.7561     7.3118 HAL2          1 chol    
      45 CTL2         1.3053    -0.3925     8.8206 CTL2          1 chol    
      46 HAL2         1.8722    -1.0341     9.5359 HAL2          1 chol    
      47 HAL2         1.2537     0.6346     9.2543 HAL2          1 chol    
      48 CTL1        -0.1896    -0.8926     8.5722 CTL1          1 chol    
      49 HAL1        -0.8148     0.0248     8.4900 HAL1          1 chol    
      50 CTL1        -0.7474    -1.6835     9.7586 CTL1          1 chol    
      51 HAL1        -0.1052    -2.5859     9.8871 HAL1          1 chol    
      52 CTL3        -2.1783    -2.1773     9.4909 CTL3          1 chol    
      53 HAL3        -2.5850    -2.7520    10.3566 HAL3          1 chol    
      54 HAL3        -2.2361    -2.7675     8.5479 HAL3          1 chol    
      55 HAL3        -2.8213    -1.2759     9.3613 HAL3          1 chol    
      56 CTL2        -0.6133    -0.8414    11.0413 CTL2          1 chol    
      57 HAL2         0.3868    -0.3490    11.0974 HAL2          1 chol    
      58 HAL2        -1.3772    -0.0328    10.9886 HAL2          1 chol    
      59 CTL2        -0.8990    -1.6468    12.2960 CTL2          1 chol    
      60 HAL2        -1.9242    -2.0818    12.2995 HAL2          1 chol    
      61 HAL2        -0.1736    -2.4963    12.3258 HAL2          1 chol    
      62 CTL2        -0.6045    -0.6893    13.6226 CTL2          1 chol    
      63 HAL2        -0.9813     0.3506    13.4771 HAL2          1 chol    
      64 HAL2         0.5002    -0.6341    13.7610 HAL2          1 chol    
      65 CTL1        -1.1363    -1.2806    14.7574 CTL1          1 chol    
      66 HAL1        -2.1364    -1.7569    14.6225 HAL1          1 chol    
      67 CTL3         0.0294    -2.2688    15.2398 CTL3          1 chol    
      68 HAL3        -0.3990    -2.7447    16.1518 HAL3          1 chol    
      69 HAL3         1.0191    -1.7790    15.3914 HAL3          1 chol    
      70 HAL3         0.1526    -3.0608    14.4632 HAL3          1 chol    
      71 CTL3        -1.0762    -0.2216    15.8159 CTL3          1 chol    
      72 HAL3        -1.5018    -0.6966    16.7312 HAL3          1 chol    
      73 HAL3        -1.5735     0.7325    15.5281 HAL3          1 chol    
      74 HAL3         0.0000    -0.0000    16.0164 HAL3          1 chol    
@<TRIPOS>BOND
       1       67       70 1
       2       17       18 1
       3       62       64 1
       4       52       55 1
       5       12       11 1
       6       22       23 1
       7       12       14 1
       8        9        8 1
       9       48       49 1
      10       29       32 1
      11       67       69 1
      12       36       39 1
      13        3        1 1
      14       35       48 1
      15       36       38 1
      16       27       11 1
      17       25       40 1
      18       50       52 1
      19       62       63 1
      20       56       59 1
      21       59       60 1
      22       50       56 1
      23       20       22 1
      24       16       11 1
      25       50       51 1
      26       20       21 1
      27       59       62 1
      28       35       40 1
      29       52       53 1
      30        5        6 1
      31        3        4 1
      32       36       37 1
      33        2        1 1
      34       71       74 1
      35       62       65 1
      36       27       28 1
      37       42       43 1
      38       29       31 1
      39       65       71 1
      40        5        1 1
      41       56       57 1
      42       22       25 1
      43       59       61 1
      44       17       19 1
      45       32       35 1
      46       67       68 1
      47       32       34 1
      48       45       47 1
      49       32       33 1
      50       10        8 1
      51        5        7 1
      52       48       50 1
      53       11        8 1
      54       45       46 1
      55       12       15 1
      56       16       17 1
      57       71       72 1
      58       52       54 1
      59       22       24 1
      60       42       40 1
      61       17        1 1
      62       12       13 1
      63       16       20 1
      64       25       26 1
      65       45       48 1
      66       65       67 1
      67       35       36 1
      68       65       66 1
      69       27       29 1
      70       42       45 1
      71       71       73 1
      72       56       58 1
      73       25       27 1
      74       41       40 1
      75        5        8 1
      76       29       30 1
      77       42       44 1
@<TRIPOS>SUBSTRUCTURE
       1 chol            1 RESIDUE    0 **** ROOT      0
