@<TRIPOS>MOLECULE
chol
74 77 1 0 1
SMALL
NO_CHARGES
@<TRIPOS>CRYSIN
    9.8089    10.8907    23.3946    90.0000    90.0000    90.0000  1  1
@<TRIPOS>ATOM
       1 CTL1         0.0000     0.0000     0.0000 CTL1          1 chol    
       2 HAL1        -1.0028    -0.3094     0.3748 HAL1          1 chol    
       3 OHL         -0.0545     0.1730    -1.4199 OHL           1 chol    
       4 HOL         -0.6991     0.8261    -1.6633 HOL           1 chol    
       5 CTL2         1.0208    -1.0371     0.3878 CTL2          1 chol    
       6 HAL2         2.0262    -0.7877    -0.0235 HAL2          1 chol    
       7 HAL2         0.7039    -2.0035    -0.0706 HAL2          1 chol    
       8 CTL2         1.0735    -1.2431     1.8959 CTL2          1 chol    
       9 HAL2         1.8355    -2.0117     2.1603 HAL2          1 chol    
      10 HAL2         0.0808    -1.6420     2.2064 HAL2          1 chol    
      11 CTL1         1.3130     0.0812     2.7003 CTL1          1 chol    
      12 CTL3         2.7964     0.5429     2.5149 CTL3          1 chol    
      13 HAL3         3.0538     0.7279     1.4451 HAL3          1 chol    
      14 HAL3         3.5031    -0.1840     2.9797 HAL3          1 chol    
      15 HAL3         2.9134     1.5118     3.0533 HAL3          1 chol    
      16 CEL1         0.4489     1.1838     2.1458 CEL1          1 chol    
      17 CTL2         0.3800     1.3259     0.6172 CTL2          1 chol    
      18 HAL2        -0.3008     2.1486     0.2997 HAL2          1 chol    
      19 HAL2         1.4060     1.5815     0.2561 HAL2          1 chol    
      20 CEL1        -0.2242     2.0408     2.8960 CEL1          1 chol    
      21 HEL1        -0.8114     2.8268     2.3948 HEL1          1 chol    
      22 CTL2        -0.2245     2.0020     4.4063 CTL2          1 chol    
      23 HAL2        -0.1592     3.0318     4.8257 HAL2          1 chol    
      24 HAL2        -1.2042     1.5767     4.7221 HAL2          1 chol    
      25 CTL1         0.8529     1.1207     4.9945 CTL1          1 chol    
      26 HAL1         1.8303     1.6592     4.9597 HAL1          1 chol    
      27 CTL1         0.9564    -0.1725     4.1863 CTL1          1 chol    
      28 HAL1        -0.0696    -0.6125     4.1813 HAL1          1 chol    
      29 CTL2         1.8534    -1.2179     4.8798 CTL2          1 chol    
      30 HAL2         2.9251    -0.9268     4.7895 HAL2          1 chol    
      31 HAL2         1.7272    -2.1782     4.3290 HAL2          1 chol    
      32 CTL2         1.5004    -1.4911     6.3386 CTL2          1 chol    
      33 HAL2         2.1780    -2.2476     6.7961 HAL2          1 chol    
      34 HAL2         0.4668    -1.9066     6.3602 HAL2          1 chol    
      35 CTL1         1.4899    -0.1636     7.1415 CTL1          1 chol    
      36 CTL3         2.9537     0.4427     7.2131 CTL3          1 chol    
      37 HAL3         3.3877     0.4800     6.1865 HAL3          1 chol    
      38 HAL3         3.6048    -0.1100     7.9280 HAL3          1 chol    
      39 HAL3         2.8663     1.4926     7.5796 HAL3          1 chol    
      40 CTL1         0.5089     0.7937     6.4482 CTL1          1 chol    
      41 HAL1        -0.4723     0.2688     6.4217 HAL1          1 chol    
      42 CTL2         0.3449     1.9637     7.4326 CTL2          1 chol    
      43 HAL2         1.0695     2.7956     7.2786 HAL2          1 chol    
      44 HAL2        -0.6840     2.3747     7.3118 HAL2          1 chol    
      45 CTL2         0.4321     1.2928     8.8206 CTL2          1 chol    
      46 HAL2         1.0908     1.8397     9.5359 HAL2          1 chol    
      47 HAL2        -0.5960     1.2725     9.2543 HAL2          1 chol    
      48 CTL1         0.8864    -0.2167     8.5722 CTL1          1 chol    
      49 HAL1        -0.0496    -0.8137     8.4900 HAL1          1 chol    
      50 CTL1         1.6599    -0.7984     9.7586 CTL1          1 chol    
      51 HAL1         2.5815    -0.1841     9.8871 HAL1          1 chol    
      52 CTL3         2.1098    -2.2437     9.4909 CTL3          1 chol    
      53 HAL3         2.6719    -2.6678    10.3566 HAL3          1 chol    
      54 HAL3         2.6980    -2.3195     8.5479 HAL3          1 chol    
      55 HAL3         1.1892    -2.8590     9.3613 HAL3          1 chol    
      56 CTL2         0.8223    -0.6387    11.0413 CTL2          1 chol    
      57 HAL2         0.3606     0.3759    11.0974 HAL2          1 chol    
      58 HAL2        -0.0092    -1.3776    10.9886 HAL2          1 chol    
      59 CTL2         1.6186    -0.9488    12.2960 CTL2          1 chol    
      60 HAL2         2.0221    -1.9868    12.2995 HAL2          1 chol    
      61 HAL2         2.4899    -0.2497    12.3258 HAL2          1 chol    
      62 CTL2         0.6706    -0.6253    13.6226 CTL2          1 chol    
      63 HAL2        -0.3804    -0.9701    13.4771 HAL2          1 chol    
      64 HAL2         0.6490     0.4807    13.7610 HAL2          1 chol    
      65 CTL1         1.2454    -1.1749    14.7574 CTL1          1 chol    
      66 HAL1         1.6910    -2.1890    14.6225 HAL1          1 chol    
      67 CTL3         2.2686    -0.0398    15.2398 CTL3          1 chol    
      68 HAL3         2.7313    -0.4825    16.1518 HAL3          1 chol    
      69 HAL3         1.8092     0.9644    15.3914 HAL3          1 chol    
      70 HAL3         3.0640     0.0592    14.4632 HAL3          1 chol    
      71 CTL3         0.1887    -1.0824    15.8159 CTL3          1 chol    
      72 HAL3         0.6504    -1.5223    16.7312 HAL3          1 chol    
      73 HAL3        -0.7801    -1.5505    15.5281 HAL3          1 chol    
      74 HAL3         0.0000    -0.0000    16.0164 HAL3          1 chol    
@<TRIPOS>BOND
       1        3        1 1
       2       52       55 1
       3       67       68 1
       4       12       14 1
       5       22       25 1
       6       62       64 1
       7       16       17 1
       8        8       11 1
       9       17       19 1
      10       65       66 1
      11       52       54 1
      12       42       45 1
      13       25       27 1
      14       48       49 1
      15       30       29 1
      16       25       40 1
      17       35       48 1
      18       65       71 1
      19       71       73 1
      20       71       74 1
      21       12       13 1
      22       59       62 1
      23        3        4 1
      24       22       23 1
      25       31       29 1
      26       36       37 1
      27       25       26 1
      28       36       38 1
      29       71       72 1
      30       22       24 1
      31       65       67 1
      32        5        7 1
      33       40       42 1
      34       56       59 1
      35        5        6 1
      36       40       41 1
      37       12       15 1
      38        2        1 1
      39       11       16 1
      40       59       60 1
      41        8       10 1
      42       50       56 1
      43        5        8 1
      44       42       43 1
      45       32       29 1
      46       20       21 1
      47       67       69 1
      48       27       28 1
      49       17       18 1
      50       36       39 1
      51        5        1 1
      52       42       44 1
      53       52       53 1
      54       27       29 1
      55       11       12 1
      56       45       46 1
      57       20       22 1
      58       62       65 1
      59       17        1 1
      60       56       57 1
      61       11       27 1
      62       62       63 1
      63       35       32 1
      64       48       50 1
      65       35       36 1
      66       50       52 1
      67       50       51 1
      68       45       47 1
      69       34       32 1
      70       16       20 1
      71       56       58 1
      72       35       40 1
      73       45       48 1
      74       67       70 1
      75        8        9 1
      76       59       61 1
      77       33       32 1
@<TRIPOS>SUBSTRUCTURE
       1 chol            1 RESIDUE    0 **** ROOT      0
