@<TRIPOS>MOLECULE
cer1
197 196 1 0 1
SMALL
NO_CHARGES
@<TRIPOS>CRYSIN
   12.5438    20.6751    73.9459    90.0000    90.0000    90.0000  1  1
@<TRIPOS>ATOM
       1 CTL3         0.0000     0.0000     0.0000 CTL3          1 cer1    
       2 CTL2         0.4640     0.2924     1.4330 CTL2          1 cer1    
       3 CTL2        -0.3648    -0.4033     2.5276 CTL2          1 cer1    
       4 CTL2         0.0402     0.0076     3.9521 CTL2          1 cer1    
       5 CTL2        -0.6005    -0.8552     5.0458 CTL2          1 cer1    
       6 CTL2        -0.2465    -0.3958     6.4726 CTL2          1 cer1    
       7 CTL2        -0.5715    -1.4654     7.5318 CTL2          1 cer1    
       8 CTL2        -0.2925    -1.0130     8.9680 CTL2          1 cer1    
       9 CTL2        -0.3862    -2.1654     9.9763 CTL2          1 cer1    
      10 CTL2        -0.2052    -1.7120    11.4286 CTL2          1 cer1    
      11 CTL2        -0.2457    -2.8624    12.4442 CTL2          1 cer1    
      12 CTL2        -0.1587    -2.3305    13.8794 CTL2          1 cer1    
      13 CTL2        -0.2283    -3.4056    15.0022 CTL2          1 cer1    
      14 CEL1        -0.3443    -2.8078    16.3885 CEL1          1 cer1    
      15 CEL1         0.0546    -1.5612    16.7222 CEL1          1 cer1    
      16 CTL1         0.0166    -0.9364    18.1032 CTL1          1 cer1    
      17 OHL          1.2315    -0.2100    18.2817 OHL           1 cer1    
      18 HOL          1.9358    -0.8622    18.2577 HOL           1 cer1    
      19 CTL1        -1.2176    -0.0438    18.3204 CTL1          1 cer1    
      20 CTL2        -1.3700     0.6274    19.7246 CTL2          1 cer1    
      21 OHL         -1.6115    -0.3529    20.7425 OHL           1 cer1    
      22 HOL         -1.5244     0.0847    21.5965 HOL           1 cer1    
      23 NH1         -1.3658     0.9718    17.2308 NH1           1 cer1    
      24 HN1         -2.3033     1.3230    17.3258 HN1           1 cer1    
      25 CLN         -0.5553     2.0472    17.0274 CLN           1 cer1    
      26 OBL         -0.9943     3.1092    17.4123 OBL           1 cer1    
      27 CTL2         0.3310     2.0307    15.7577 CTL2          1 cer1    
      28 CTL2        -0.3976     2.0508    14.3564 CTL2          1 cer1    
      29 CTL2         0.4845     2.5571    13.1582 CTL2          1 cer1    
      30 CTL2        -0.1252     2.4514    11.7133 CTL2          1 cer1    
      31 CTL2         0.6250     3.2414    10.5810 CTL2          1 cer1    
      32 CTL2         0.1891     2.9569     9.0627 CTL2          1 cer1    
      33 CTL2         0.7586     3.8415     7.8550 CTL2          1 cer1    
      34 CTL2         0.4724     3.3472     6.3809 CTL2          1 cer1    
      35 CTL2         0.9188     4.2966     5.1926 CTL2          1 cer1    
      36 CTL2         0.7114     3.7595     3.7130 CTL2          1 cer1    
      37 CTL2         1.0668     4.7169     2.4955 CTL2          1 cer1    
      38 CTL2         0.9235     4.1258     1.0290 CTL2          1 cer1    
      39 CTL2         1.2261     5.0722    -0.2153 CTL2          1 cer1    
      40 CTL2         1.0997     4.4508    -1.6777 CTL2          1 cer1    
      41 CTL2         1.3712     5.3922    -2.9345 CTL2          1 cer1    
      42 CTL2         1.2580     4.7633    -4.3993 CTL2          1 cer1    
      43 CTL2         1.4985     5.7102    -5.6626 CTL2          1 cer1    
      44 CTL2         1.4445     5.0716    -7.1279 CTL2          1 cer1    
      45 CTL2         1.6264     6.0316    -8.3952 CTL2          1 cer1    
      46 CTL2         1.6382     5.3844    -9.8596 CTL2          1 cer1    
      47 CTL2         1.7434     6.3488   -11.1318 CTL2          1 cer1    
      48 CTL2         1.8322     5.7035   -12.5936 CTL2          1 cer1    
      49 CTL2         1.8629     6.6722   -13.8666 CTL2          1 cer1    
      50 CTL2         2.0311     6.0351   -15.3257 CTL2          1 cer1    
      51 CTL2         1.9912     7.0065   -16.5951 CTL2          1 cer1    
      52 CTL2         2.2085     6.3945   -18.0553 CTL2          1 cer1    
      53 CTL2         2.1230     7.3824   -19.3063 CTL2          1 cer1    
      54 CTL2         2.3572     6.8108   -20.7844 CTL2          1 cer1    
      55 CTL2         2.2600     7.8400   -21.9915 CTL2          1 cer1    
      56 OS           2.4525     7.2618   -23.3377 OS            1 cer1    
      57 CL           2.4953     8.1684   -24.4580 CL            1 cer1    
      58 OBL          2.4097     9.3695   -24.3645 OBL           1 cer1    
      59 CTL2         2.6183     7.4283   -25.8636 CTL2          1 cer1    
      60 CTL2         2.8087     8.3606   -27.1573 CTL2          1 cer1    
      61 CTL2         2.6908     7.6938   -28.5875 CTL2          1 cer1    
      62 CTL2         3.0657     8.5900   -29.8441 CTL2          1 cer1    
      63 CTL2         2.6594     8.0366   -31.2659 CTL2          1 cer1    
      64 CTL2         3.2765     8.7253   -32.5501 CTL2          1 cer1    
      65 CTL2         2.5567     8.4089   -33.9155 CTL2          1 cer1    
      66 CEL1         3.3457     8.2977   -35.2175 CEL1          1 cer1    
      67 CEL1         3.0002     8.7846   -36.4472 CEL1          1 cer1    
      68 CTL2         3.6816     8.3922   -37.7518 CTL2          1 cer1    
      69 CEL1         3.9297     9.3740   -38.9009 CEL1          1 cer1    
      70 CEL1         3.8440     9.0379   -40.2067 CEL1          1 cer1    
      71 CTL2         4.3274     9.8520   -41.4064 CTL2          1 cer1    
      72 CTL2         3.3595    10.0443   -42.6097 CTL2          1 cer1    
      73 CTL2         4.0582    10.1697   -43.9869 CTL2          1 cer1    
      74 CTL2         3.1489    10.5454   -45.1814 CTL2          1 cer1    
      75 CTL3         3.8332    10.4759   -46.5662 CTL3          1 cer1    
      76 HAL3        -1.0335     0.3739    -0.1734 HAL3          1 cer1    
      77 HAL3         0.6737     0.5002    -0.7304 HAL3          1 cer1    
      78 HAL3         0.0100    -1.0931    -0.2084 HAL3          1 cer1    
      79 HAL2         1.5314    -0.0084     1.5520 HAL2          1 cer1    
      80 HAL2         0.4263     1.3888     1.6019 HAL2          1 cer1    
      81 HAL2        -1.4418    -0.1590     2.3876 HAL2          1 cer1    
      82 HAL2        -0.2463    -1.5057     2.4146 HAL2          1 cer1    
      83 HAL2        -0.2422     1.0726     4.1195 HAL2          1 cer1    
      84 HAL2         1.1439    -0.0787     4.0528 HAL2          1 cer1    
      85 HAL2        -0.2433    -1.8965     4.8927 HAL2          1 cer1    
      86 HAL2        -1.7067    -0.8618     4.9259 HAL2          1 cer1    
      87 HAL2         0.8438    -0.1707     6.5336 HAL2          1 cer1    
      88 HAL2        -0.8020     0.5423     6.6998 HAL2          1 cer1    
      89 HAL2        -1.6405    -1.7621     7.4676 HAL2          1 cer1    
      90 HAL2         0.0311    -2.3727     7.3112 HAL2          1 cer1    
      91 HAL2         0.7361    -0.5831     9.0260 HAL2          1 cer1    
      92 HAL2        -1.0109    -0.2036     9.2370 HAL2          1 cer1    
      93 HAL2        -1.3760    -2.6640     9.8804 HAL2          1 cer1    
      94 HAL2         0.4026    -2.9155     9.7350 HAL2          1 cer1    
      95 HAL2        -1.0209    -0.9989    11.6754 HAL2          1 cer1    
      96 HAL2         0.7547    -1.1572    11.5254 HAL2          1 cer1    
      97 HAL2         0.6022    -3.5573    12.2598 HAL2          1 cer1    
      98 HAL2        -1.1941    -3.4352    12.3099 HAL2          1 cer1    
      99 HAL2        -0.9968    -1.6059    14.0106 HAL2          1 cer1    
     100 HAL2         0.7840    -1.7511    13.9849 HAL2          1 cer1    
     101 HAL2         0.6377    -4.0978    14.9278 HAL2          1 cer1    
     102 HAL2        -1.1285    -4.0263    14.8117 HAL2          1 cer1    
     103 HEL1        -0.7585    -3.4702    17.1623 HEL1          1 cer1    
     104 HEL1         0.7346    -1.0302    16.0391 HEL1          1 cer1    
     105 HAL1        -0.0304    -1.7717    18.8471 HAL1          1 cer1    
     106 HAL1        -2.0960    -0.7140    18.2117 HAL1          1 cer1    
     107 HAL2        -2.2412     1.3376    19.7202 HAL2          1 cer1    
     108 HAL2        -0.4353     1.1851    19.9495 HAL2          1 cer1    
     109 HAL2         1.0307     1.1723    15.8102 HAL2          1 cer1    
     110 HAL2         0.9087     2.9659    15.8781 HAL2          1 cer1    
     111 HAL2        -0.7807     1.0285    14.1320 HAL2          1 cer1    
     112 HAL2        -1.2923     2.7148    14.4362 HAL2          1 cer1    
     113 HAL2         1.4635     2.0241    13.1669 HAL2          1 cer1    
     114 HAL2         0.6882     3.6350    13.3572 HAL2          1 cer1    
     115 HAL2        -0.1502     1.3711    11.4511 HAL2          1 cer1    
     116 HAL2        -1.1712     2.8212    11.7377 HAL2          1 cer1    
     117 HAL2         1.7132     3.0238    10.6756 HAL2          1 cer1    
     118 HAL2         0.4798     4.3248    10.7694 HAL2          1 cer1    
     119 HAL2        -0.9240     3.0113     9.0141 HAL2          1 cer1    
     120 HAL2         0.4906     1.9083     8.8531 HAL2          1 cer1    
     121 HAL2         0.3510     4.8638     8.0088 HAL2          1 cer1    
     122 HAL2         1.8636     3.9021     7.9634 HAL2          1 cer1    
     123 HAL2         0.9495     2.3478     6.2393 HAL2          1 cer1    
     124 HAL2        -0.6232     3.1843     6.2993 HAL2          1 cer1    
     125 HAL2         1.9973     4.5463     5.3344 HAL2          1 cer1    
     126 HAL2         0.3553     5.2529     5.2796 HAL2          1 cer1    
     127 HAL2         1.3295     2.8410     3.6355 HAL2          1 cer1    
     128 HAL2        -0.3516     3.4576     3.5862 HAL2          1 cer1    
     129 HAL2         0.4175     5.6187     2.5719 HAL2          1 cer1    
     130 HAL2         2.1188     5.0461     2.6305 HAL2          1 cer1    
     131 HAL2         1.6127     3.2596     0.9461 HAL2          1 cer1    
     132 HAL2        -0.1133     3.7346     0.9289 HAL2          1 cer1    
     133 HAL2         0.5348     5.9415    -0.1374 HAL2          1 cer1    
     134 HAL2         2.2614     5.4705    -0.1043 HAL2          1 cer1    
     135 HAL2         0.0663     4.0531    -1.7797 HAL2          1 cer1    
     136 HAL2         1.7973     3.5844    -1.7401 HAL2          1 cer1    
     137 HAL2         2.3918     5.8152    -2.8155 HAL2          1 cer1    
     138 HAL2         0.6591     6.2434    -2.8813 HAL2          1 cer1    
     139 HAL2         1.9958     3.9338    -4.4509 HAL2          1 cer1    
     140 HAL2         0.2424     4.3203    -4.5064 HAL2          1 cer1    
     141 HAL2         0.7455     6.5288    -5.6129 HAL2          1 cer1    
     142 HAL2         2.4987     6.1843    -5.5456 HAL2          1 cer1    
     143 HAL2         2.2291     4.2858    -7.1834 HAL2          1 cer1    
     144 HAL2         0.4653     4.5580    -7.2293 HAL2          1 cer1    
     145 HAL2         2.5830     6.5875    -8.2683 HAL2          1 cer1    
     146 HAL2         0.8066     6.7842    -8.3617 HAL2          1 cer1    
     147 HAL2         0.7071     4.7880    -9.9791 HAL2          1 cer1    
     148 HAL2         2.4914     4.6721    -9.9038 HAL2          1 cer1    
     149 HAL2         0.8563     7.0162   -11.1142 HAL2          1 cer1    
     150 HAL2         2.6413     6.9866   -10.9929 HAL2          1 cer1    
     151 HAL2         0.9626     5.0190   -12.7161 HAL2          1 cer1    
     152 HAL2         2.7561     5.0829   -12.6227 HAL2          1 cer1    
     153 HAL2         2.6925     7.3980   -13.7220 HAL2          1 cer1    
     154 HAL2         0.9206     7.2637   -13.8577 HAL2          1 cer1    
     155 HAL2         3.0009     5.4905   -15.3500 HAL2          1 cer1    
     156 HAL2         1.2259     5.2804   -15.4616 HAL2          1 cer1    
     157 HAL2         2.7685     7.7883   -16.4440 HAL2          1 cer1    
     158 HAL2         1.0017     7.5165   -16.5919 HAL2          1 cer1    
     159 HAL2         3.2083     5.9108   -18.0720 HAL2          1 cer1    
     160 HAL2         1.4542     5.5927   -18.2070 HAL2          1 cer1    
     161 HAL2         1.1143     7.8511   -19.2835 HAL2          1 cer1    
     162 HAL2         2.8671     8.1923   -19.1376 HAL2          1 cer1    
     163 HAL2         1.6176     6.0027   -20.9748 HAL2          1 cer1    
     164 HAL2         3.3664     6.3451   -20.8309 HAL2          1 cer1    
     165 HAL2         1.2564     8.3210   -21.9467 HAL2          1 cer1    
     166 HAL2         3.0170     8.6409   -21.8198 HAL2          1 cer1    
     167 HAL2         3.4663     6.7134   -25.7952 HAL2          1 cer1    
     168 HAL2         1.6869     6.8361   -25.9763 HAL2          1 cer1    
     169 HAL2         2.0488     9.1759   -27.1214 HAL2          1 cer1    
     170 HAL2         3.8016     8.8570   -27.0824 HAL2          1 cer1    
     171 HAL2         1.6405     7.3439   -28.7141 HAL2          1 cer1    
     172 HAL2         3.3383     6.7916   -28.6267 HAL2          1 cer1    
     173 HAL2         4.1658     8.7566   -29.8272 HAL2          1 cer1    
     174 HAL2         2.5824     9.5836   -29.7363 HAL2          1 cer1    
     175 HAL2         2.9340     6.9593   -31.3223 HAL2          1 cer1    
     176 HAL2         1.5500     8.0965   -31.3330 HAL2          1 cer1    
     177 HAL2         3.2736     9.8304   -32.4209 HAL2          1 cer1    
     178 HAL2         4.3417     8.4083   -32.6108 HAL2          1 cer1    
     179 HAL2         1.7090     9.1232   -34.0237 HAL2          1 cer1    
     180 HAL2         2.0818     7.4121   -33.7736 HAL2          1 cer1    
     181 HEL1         4.1991     7.6033   -35.1648 HEL1          1 cer1    
     182 HEL1         2.0640     9.3550   -36.5556 HEL1          1 cer1    
     183 HAL2         3.1051     7.5251   -38.1495 HAL2          1 cer1    
     184 HAL2         4.6711     7.9511   -37.5030 HAL2          1 cer1    
     185 HEL1         4.3745    10.3444   -38.6332 HEL1          1 cer1    
     186 HEL1         3.5348     8.0095   -40.4511 HEL1          1 cer1    
     187 HAL2         4.6296    10.8877   -41.1359 HAL2          1 cer1    
     188 HAL2         5.2406     9.3422   -41.7899 HAL2          1 cer1    
     189 HAL2         2.7164     9.1465   -42.6447 HAL2          1 cer1    
     190 HAL2         2.7050    10.9406   -42.4496 HAL2          1 cer1    
     191 HAL2         4.5075     9.1880   -44.2332 HAL2          1 cer1    
     192 HAL2         4.8915    10.9135   -43.8844 HAL2          1 cer1    
     193 HAL2         2.2626     9.8852   -45.2626 HAL2          1 cer1    
     194 HAL2         2.7883    11.5773   -44.9670 HAL2          1 cer1    
     195 HAL3         4.1598     9.4454   -46.8369 HAL3          1 cer1    
     196 HAL3         4.7547    11.0901   -46.5724 HAL3          1 cer1    
     197 HAL3         3.1318    10.8493   -47.3494 HAL3          1 cer1    
@<TRIPOS>BOND
       1       38       39 1
       2      115       30 1
       3      154       49 1
       4      141       43 1
       5       50       51 1
       6      179       65 1
       7        4       83 1
       8      155       50 1
       9      184       68 1
      10      119       32 1
      11       63       64 1
      12       11       97 1
      13       14      103 1
      14      117       31 1
      15        5       86 1
      16        7       89 1
      17      131       38 1
      18       43       42 1
      19        6       87 1
      20      140       42 1
      21       54       55 1
      22       68       69 1
      23       27       28 1
      24      196       75 1
      25      146       45 1
      26       15       16 1
      27      178       64 1
      28      188       71 1
      29       73       74 1
      30       10       95 1
      31       69       70 1
      32       28       29 1
      33       16       17 1
      34       40       41 1
      35       58       57 1
      36      148       46 1
      37       13      101 1
      38      181       66 1
      39      174       62 1
      40      133       39 1
      41       45       44 1
      42      182       67 1
      43      194       74 1
      44      153       49 1
      45       59       60 1
      46       35       36 1
      47      168       59 1
      48       47       48 1
      49       19      106 1
      50      160       52 1
      51       57       56 1
      52       56       55 1
      53       11       12 1
      54      157       51 1
      55      175       63 1
      56      167       59 1
      57       14       15 1
      58      197       75 1
      59       17       18 1
      60      118       31 1
      61        8       91 1
      62        2       79 1
      63       12       99 1
      64       70       71 1
      65       29       30 1
      66       44       43 1
      67        9       93 1
      68       23       25 1
      69       25       27 1
      70      158       51 1
      71        4        5 1
      72      135       40 1
      73       13      102 1
      74       23       24 1
      75       64       65 1
      76      149       47 1
      77       20      107 1
      78      193       74 1
      79      127       36 1
      80       11       98 1
      81      186       70 1
      82      177       64 1
      83      191       73 1
      84      132       38 1
      85      121       33 1
      86      112       28 1
      87      137       41 1
      88       12      100 1
      89       41       42 1
      90      129       37 1
      91       49       50 1
      92       37       38 1
      93       19       20 1
      94       60       61 1
      95       16       19 1
      96      111       28 1
      97      139       42 1
      98      150       47 1
      99       45       46 1
     100       33       32 1
     101      162       53 1
     102       33       34 1
     103        6       88 1
     104       13       14 1
     105       12       13 1
     106      142       43 1
     107       57       59 1
     108      192       73 1
     109       65       66 1
     110      170       60 1
     111       76        1 1
     112        8       92 1
     113      138       41 1
     114        4       84 1
     115        3       81 1
     116      176       63 1
     117       10       96 1
     118      187       71 1
     119      125       35 1
     120      126       35 1
     121       72       73 1
     122       10       11 1
     123      172       61 1
     124        7        8 1
     125      124       34 1
     126      165       55 1
     127       48       49 1
     128       36       37 1
     129      171       61 1
     130      195       75 1
     131      189       72 1
     132       32       31 1
     133       62       63 1
     134       21       22 1
     135       20      108 1
     136        8        9 1
     137      110       27 1
     138       39       40 1
     139       51       52 1
     140      116       30 1
     141        2        1 1
     142        2       80 1
     143       74       75 1
     144      159       52 1
     145      147       46 1
     146       19       23 1
     147      183       68 1
     148      156       50 1
     149      164       54 1
     150        9       10 1
     151      166       55 1
     152       77        1 1
     153        5        6 1
     154      136       40 1
     155      190       72 1
     156        5       85 1
     157      145       45 1
     158      143       44 1
     159      151       48 1
     160      185       69 1
     161      109       27 1
     162       66       67 1
     163       52       53 1
     164       25       26 1
     165       20       21 1
     166       61       62 1
     167        3       82 1
     168        9       94 1
     169      128       36 1
     170       53       54 1
     171        3        4 1
     172      114       29 1
     173       46       47 1
     174       34       35 1
     175       78        1 1
     176      130       37 1
     177       15      104 1
     178        2        3 1
     179       67       68 1
     180      169       60 1
     181      120       32 1
     182      144       44 1
     183      161       53 1
     184      134       39 1
     185        7       90 1
     186      180       65 1
     187       71       72 1
     188       30       31 1
     189      173       62 1
     190      122       33 1
     191      123       34 1
     192      113       29 1
     193      152       48 1
     194      163       54 1
     195        6        7 1
     196       16      105 1
@<TRIPOS>SUBSTRUCTURE
       1 cer1            1 RESIDUE    0 **** ROOT      0
