@<TRIPOS>MOLECULE
pchd
50 49 1 0 1
SMALL
NO_CHARGES
@<TRIPOS>CRYSIN
   13.2767    16.2428    14.5977    90.0000    90.0000    90.0000  1  1
@<TRIPOS>ATOM
       1              3.7648     8.6931     3.8504               1 pchd    
       2              5.1892     9.0609     3.5936               1 pchd    
       3              5.3990     8.8693     2.5554               1 pchd    
       4              5.9642     8.5880     4.1900               1 pchd    
       5              5.2785    10.1270     3.7344               1 pchd    
       6              3.4380     8.9250     5.3526               1 pchd    
       7              4.1212     8.3590     5.9759               1 pchd    
       8              2.4632     8.5442     5.5919               1 pchd    
       9              3.4584     9.9908     5.5478               1 pchd    
      10 CTL5         2.8411     9.5728     3.1023 CTL5          1 pchd    
      11 HL           2.8552    10.5639     3.5337 HL            1 pchd    
      12 HL           1.8659     9.1149     3.1147 HL            1 pchd    
      13 HL           3.1039     9.7320     2.0681 HL            1 pchd    
      14 CTL2         3.5830     7.1875     3.3686 CTL2          1 pchd    
      15 HL           4.0088     6.4306     3.9999 HL            1 pchd    
      16 HL           4.0371     7.1969     2.3902 HL            1 pchd    
      17 CTL2         2.1217     6.7346     3.1354 CTL2          1 pchd    
      18 HAL2         2.0614     5.7993     2.5503 HAL2          1 pchd    
      19 HAL2         1.5611     7.4906     2.5430 HAL2          1 pchd    
      20 PL          -0.1558     6.4170     4.4541 PL            1 pchd    
      21 O2L         -0.7278     7.6038     3.8783 O2L           1 pchd    
      22 O2L         -0.5108     6.0856     5.8561 O2L           1 pchd    
      23 OSLP        -0.2550     5.1063     3.5611 OSLP          1 pchd    
      24 OSLP         1.4656     6.5903     4.3667 OSLP          1 pchd    
      25 CTL2        -1.3494     4.4516     3.0710 CTL2          1 pchd    
      26 HAL2        -2.2996     5.0099     3.2677 HAL2          1 pchd    
      27 HAL2        -1.4804     3.4307     3.4858 HAL2          1 pchd    
      28 CTL1        -1.2636     4.4577     1.5403 CTL1          1 pchd    
      29 HAL1        -2.3125     4.2046     1.2967 HAL1          1 pchd    
      30 OSL         -0.3000     3.5881     1.0231 OSL           1 pchd    
      31 CL          -0.7217     2.4059     0.6195 CL            1 pchd    
      32 OBL         -1.8731     2.0124     0.6958 OBL           1 pchd    
      33 CTL2         0.4398     1.4544     0.4111 CTL2          1 pchd    
      34 HAL2         0.8587     1.3536     1.4295 HAL2          1 pchd    
      35 HAL2         1.0819     1.8342    -0.4034 HAL2          1 pchd    
      36 CTL2        -0.9128     5.8905     0.9585 CTL2          1 pchd    
      37 HAL2         0.1073     6.1191     1.3384 HAL2          1 pchd    
      38 HAL2        -1.6966     6.5566     1.3771 HAL2          1 pchd    
      39 OSL         -0.8062     5.8915    -0.4484 OSL           1 pchd    
      40 CL          -0.6079     6.9388    -1.0923 CL            1 pchd    
      41 OBL         -0.3512     8.0321    -0.6661 OBL           1 pchd    
      42 CTL2        -0.8945     6.6354    -2.5916 CTL2          1 pchd    
      43 HAL2        -1.8001     7.2523    -2.7609 HAL2          1 pchd    
      44 HAL2        -1.0608     5.5469    -2.7453 HAL2          1 pchd    
      45 CTL2         0.0000     0.0000     0.0000 CTL2          1 pchd    
      46 HAL2        -0.6750    -0.4229     0.7763 HAL2          1 pchd    
      47 HAL2         0.8781    -0.6789    -0.0458 HAL2          1 pchd    
      48 CTL2         0.0924     7.1330    -3.6218 CTL2          1 pchd    
      49 HAL2         1.1236     6.7460    -3.5004 HAL2          1 pchd    
      50 HAL2         0.1490     8.2366    -3.5369 HAL2          1 pchd    
@<TRIPOS>BOND
       1       45       46 1
       2       18       17 1
       3       23       20 1
       4       34       33 1
       5       25       27 1
       6        1        6 1
       7       28       36 1
       8       42       48 1
       9       40       39 1
      10       30       31 1
      11       19       17 1
      12       15       14 1
      13       24       17 1
      14       42       40 1
      15        6        9 1
      16       21       20 1
      17       43       42 1
      18       41       40 1
      19        2        5 1
      20       48       49 1
      21        1       10 1
      22        6        8 1
      23       39       36 1
      24        6        7 1
      25       25       23 1
      26       16       14 1
      27       25       28 1
      28       48       50 1
      29       10       12 1
      30        3        2 1
      31       10       11 1
      32       38       36 1
      33       28       30 1
      34       22       20 1
      35       10       13 1
      36        1       14 1
      37        2        4 1
      38       37       36 1
      39       45       47 1
      40       17       14 1
      41       44       42 1
      42       35       33 1
      43       25       26 1
      44        2        1 1
      45       31       32 1
      46       24       20 1
      47       28       29 1
      48       45       33 1
      49       31       33 1
@<TRIPOS>SUBSTRUCTURE
       1 pchd            1 RESIDUE    0 **** ROOT      0
