@<TRIPOS>MOLECULE
DSPC
142 141 1 0 1
SMALL
NO_CHARGES
@<TRIPOS>CRYSIN
   17.7943    12.5120    33.8593    90.0000    90.0000    90.0000  1  1
@<TRIPOS>ATOM
       1              6.9014     3.9178     4.3883               1 DSPC    
       2              7.2055     4.9625     5.4285               1 DSPC    
       3              8.2291     5.2910     5.3443               1 DSPC    
       4              7.2087     4.4137     6.3626               1 DSPC    
       5              6.5569     5.8229     5.3620               1 DSPC    
       6              6.7245     4.5787     3.0836               1 DSPC    
       7              7.4841     5.3054     2.8325               1 DSPC    
       8              5.7471     5.0299     3.0248               1 DSPC    
       9              6.6472     3.7958     2.3446               1 DSPC    
      10 10           8.0678     2.9812     4.2821 10            1 DSPC    
      11 11           9.0629     3.4203     4.3317 11            1 DSPC    
      12 12           8.0070     2.2707     3.4703 12            1 DSPC    
      13 13           8.0332     2.3202     5.1371 13            1 DSPC    
      14 14           5.6774     3.1556     4.7490 14            1 DSPC    
      15 15           5.8086     2.7701     5.7454 15            1 DSPC    
      16 16           5.4190     2.4434     3.9786 16            1 DSPC    
      17 17           4.4233     4.0091     5.0607 17            1 DSPC    
      18 18           4.6498     4.8363     5.7704 18            1 DSPC    
      19 19           3.6030     3.4454     5.5455 19            1 DSPC    
      20 20           2.7137     3.9850     2.9654 20            1 DSPC    
      21 21           2.8050     4.5821     1.6443 21            1 DSPC    
      22 22           1.4360     4.0694     3.7466 22            1 DSPC    
      23 23           3.1574     2.4477     2.8809 23            1 DSPC    
      24 24           3.8238     4.6196     3.8958 24            1 DSPC    
      25 25           3.9335     1.9632     1.7800 25            1 DSPC    
      26 26           4.3473     0.9541     1.9752 26            1 DSPC    
      27 27           4.8200     2.6240     1.7892 27            1 DSPC    
      28 28           3.1582     1.8991     0.4483 28            1 DSPC    
      29 29           2.7921     2.9297     0.2112 29            1 DSPC    
      30 30           2.1476     0.8158     0.5103 30            1 DSPC    
      31 31           0.9325     1.2169     0.0726 31            1 DSPC    
      32 32           0.6021     2.3141    -0.2470 32            1 DSPC    
      33 33           0.0000     0.0000     0.0000 33            1 DSPC    
      34 34          -0.7745     0.1597     0.7862 34            1 DSPC    
      35 35           0.5688    -0.9295     0.2381 35            1 DSPC    
      36 36           4.0199     1.6497    -0.7896 36            1 DSPC    
      37 37           4.5473     0.6807    -0.7020 37            1 DSPC    
      38 38           4.8311     2.3977    -0.7354 38            1 DSPC    
      39 39           3.2825     1.6979    -2.0422 39            1 DSPC    
      40 40           3.1314     2.9693    -2.4308 40            1 DSPC    
      41 41           3.7205     3.9579    -2.0365 41            1 DSPC    
      42 42           1.8850     3.0034    -3.3565 42            1 DSPC    
      43 43           0.9573     2.7797    -2.7859 43            1 DSPC    
      44 44           2.1271     2.2361    -4.1202 44            1 DSPC    
      45 45          -0.6318     0.0131    -1.3102 45            1 DSPC    
      46 46          -1.0608     1.0009    -1.5741 46            1 DSPC    
      47 47          -1.5222    -0.6595    -1.2275 47            1 DSPC    
      48 48           0.1206    -0.5205    -2.4489 48            1 DSPC    
      49 49           0.4536    -1.5556    -2.2539 49            1 DSPC    
      50 50           0.9761     0.1240    -2.7380 50            1 DSPC    
      51 51          -0.8139    -0.4991    -3.6436 51            1 DSPC    
      52 52          -1.5019     0.3759    -3.7044 52            1 DSPC    
      53 53          -1.4324    -1.4144    -3.7600 53            1 DSPC    
      54 54          -0.0441    -0.6629    -4.9300 54            1 DSPC    
      55 55           0.5128    -1.6051    -5.1499 55            1 DSPC    
      56 56           0.7971     0.0551    -5.0144 56            1 DSPC    
      57 57          -0.9733    -0.4504    -6.1065 57            1 DSPC    
      58 58          -1.4120     0.5478    -5.9331 58            1 DSPC    
      59 59          -1.7907    -1.2183    -6.0993 59            1 DSPC    
      60 60          -0.2179    -0.5995    -7.4613 60            1 DSPC    
      61 61           0.0242    -1.6803    -7.5524 61            1 DSPC    
      62 62           0.6901     0.0341    -7.5678 62            1 DSPC    
      63 63          -1.1200    -0.1798    -8.5960 63            1 DSPC    
      64 64          -1.4594     0.8721    -8.4539 64            1 DSPC    
      65 65          -2.0456    -0.8038    -8.6021 65            1 DSPC    
      66 66          -0.4438    -0.2828    -9.9504 66            1 DSPC    
      67 67          -0.0455    -1.2623   -10.2765 67            1 DSPC    
      68 68           0.3903     0.4195   -10.1318 68            1 DSPC    
      69 69          -1.5341     0.0210   -11.0176 69            1 DSPC    
      70 70          -2.0668     0.9565   -10.7354 70            1 DSPC    
      71 71          -2.2449    -0.8238   -11.0407 71            1 DSPC    
      72 72          -0.8731     0.2264   -12.3930 72            1 DSPC    
      73 73          -0.1887     1.1003   -12.4706 73            1 DSPC    
      74 74          -0.2498    -0.6444   -12.6891 74            1 DSPC    
      75 75          -1.9726     0.4663   -13.4296 75            1 DSPC    
      76 76          -2.5077     1.4022   -13.1834 76            1 DSPC    
      77 77          -2.7327    -0.3342   -13.3099 77            1 DSPC    
      78 78          -1.5178     0.5823   -14.8611 78            1 DSPC    
      79 79          -2.2847     1.0700   -15.5124 79            1 DSPC    
      80 80          -0.7136     1.3452   -14.9120 80            1 DSPC    
      81 81          -0.9313    -0.7100   -15.4174 81            1 DSPC    
      82 82          -0.2040    -1.0758   -14.6510 82            1 DSPC    
      83 83          -1.7748    -1.4265   -15.5135 83            1 DSPC    
      84 84          -0.0791    -0.6756   -16.7325 84            1 DSPC    
      85 85           0.3151    -1.6891   -16.9642 85            1 DSPC    
      86 86           0.8347    -0.1175   -16.4426 86            1 DSPC    
      87 87          -0.8674    -0.0863   -17.8679 87            1 DSPC    
      88 88          -1.0918     0.9447   -17.5060 88            1 DSPC    
      89 89          -1.7844    -0.6896   -18.0440 89            1 DSPC    
      90 90          -0.0000    -0.0000   -19.1224 90            1 DSPC    
      91 91          -0.4579     0.6899   -19.8598 91            1 DSPC    
      92 92           0.1233    -1.0399   -19.4941 92            1 DSPC    
      93 93           1.0012     0.3869   -18.8235 93            1 DSPC    
      94 94           1.7130     4.3195    -4.0602 94            1 DSPC    
      95 95           2.4720     4.4460    -4.8648 95            1 DSPC    
      96 96           1.8158     5.0456    -3.2262 96            1 DSPC    
      97 97           0.2723     4.5063    -4.5067 97            1 DSPC    
      98 98           0.2359     5.6040    -4.6353 98            1 DSPC    
      99 99          -0.4251     4.3032    -3.6571 99            1 DSPC    
     100             -0.2812     3.8072    -5.7765               1 DSPC    
     101             -1.3737     3.7068    -5.5964               1 DSPC    
     102              0.1996     2.8162    -5.9222               1 DSPC    
     103             -0.0482     4.6865    -7.0184               1 DSPC    
     104              1.0374     4.8617    -7.1750               1 DSPC    
     105             -0.5088     5.6993    -6.8767               1 DSPC    
     106             -0.5607     3.9753    -8.2716               1 DSPC    
     107             -1.5995     3.6842    -7.9832               1 DSPC    
     108              0.1469     3.1177    -8.3677               1 DSPC    
     109             -0.5697     4.8292    -9.5249               1 DSPC    
     110              0.4407     5.1930    -9.8108               1 DSPC    
     111             -1.2638     5.6431    -9.2217               1 DSPC    
     112             -1.0431     4.1201   -10.7948               1 DSPC    
     113             -2.0392     3.6816   -10.5690               1 DSPC    
     114             -0.2035     3.3986   -10.9070               1 DSPC    
     115             -1.1469     4.9460   -12.1057               1 DSPC    
     116             -0.1226     5.3801   -12.2111               1 DSPC    
     117             -2.0136     5.6205   -11.9365               1 DSPC    
     118             -1.4606     4.1251   -13.3515               1 DSPC    
     119             -2.4201     3.5889   -13.1487               1 DSPC    
     120             -0.7073     3.3339   -13.5307               1 DSPC    
     121             -1.6823     4.9477   -14.6266               1 DSPC    
     122             -0.7639     5.5349   -14.8594               1 DSPC    
     123             -2.5252     5.6736   -14.7087               1 DSPC    
     124             -1.8744     4.0490   -15.8315               1 DSPC    
     125             -2.8911     3.6066   -15.7573               1 DSPC    
     126             -1.0948     3.2675   -15.9234               1 DSPC    
     127             -2.0043     4.7871   -17.2027               1 DSPC    
     128             -1.4079     5.6972   -17.4045               1 DSPC    
     129             -3.0774     5.0825   -17.2953               1 DSPC    
     130             -1.7567     3.8765   -18.4241               1 DSPC    
     131             -1.9213     2.8098   -18.1673               1 DSPC    
     132             -0.7025     4.0510   -18.7454               1 DSPC    
     133             -2.6624     4.2772   -19.6060               1 DSPC    
     134             -2.4923     5.3277   -19.9245               1 DSPC    
     135             -3.7314     4.1036   -19.3560               1 DSPC    
     136             -2.3768     3.4105   -20.8714               1 DSPC    
     137             -2.4689     2.3337   -20.5780               1 DSPC    
     138             -3.1374     3.6495   -21.6478               1 DSPC    
     139             -1.0064     3.5368   -21.5346               1 DSPC    
     140             -0.6659     4.5796   -21.7065               1 DSPC    
     141             -0.2240     3.1621   -20.8388               1 DSPC    
     142             -0.9644     2.9696   -22.4967               1 DSPC    
@<TRIPOS>BOND
       1      112      115 1
       2       12       10 1
       3        3        2 1
       4       97       99 1
       5      133      135 1
       6       84       86 1
       7       75       78 1
       8      103      105 1
       9      136      139 1
      10       87       90 1
      11      100      103 1
      12       66       67 1
      13       36       37 1
      14       69       72 1
      15       84       87 1
      16        2        5 1
      17       54       55 1
      18      109      110 1
      19       60       61 1
      20       11       10 1
      21       90       92 1
      22      118      119 1
      23       72       73 1
      24       42       44 1
      25        1       10 1
      26        1        6 1
      27       17       24 1
      28       13       10 1
      29      115      117 1
      30       66       68 1
      31       94       97 1
      32       25       23 1
      33      124      125 1
      34      127      128 1
      35      130      131 1
      36       81       83 1
      37      106      107 1
      38      124      127 1
      39       20       22 1
      40       60       62 1
      41      100      102 1
      42      136      138 1
      43       87       89 1
      44       66       69 1
      45       69       71 1
      46       17       18 1
      47      136      137 1
      48      100      101 1
      49      112      114 1
      50       51       54 1
      51       81       84 1
      52       45       48 1
      53       75       77 1
      54       17       19 1
      55       42       43 1
      56       63       64 1
      57       36       38 1
      58       39       40 1
      59       60       63 1
      60       78       79 1
      61       27       25 1
      62        7        6 1
      63        1        2 1
      64       36       39 1
      65       57       58 1
      66       40       42 1
      67      109      111 1
      68       72       74 1
      69      127      129 1
      70       78       80 1
      71       63       66 1
      72       78       81 1
      73      127      130 1
      74      112      113 1
      75       33       45 1
      76      103      106 1
      77       75       76 1
      78       90       91 1
      79       87       88 1
      80      124      126 1
      81      130      133 1
      82       94       96 1
      83       26       25 1
      84       28       25 1
      85      115      116 1
      86       90       93 1
      87       54       57 1
      88      121      122 1
      89      109      112 1
      90       72       75 1
      91       45       47 1
      92      118      121 1
      93        1       14 1
      94       81       82 1
      95      133      136 1
      96       97      100 1
      97      139      142 1
      98        8        6 1
      99      115      118 1
     100       54       56 1
     101        9        6 1
     102       33       31 1
     103       48       51 1
     104       15       14 1
     105       63       65 1
     106       30       28 1
     107      106      109 1
     108      139      141 1
     109      118      120 1
     110       45       46 1
     111       42       94 1
     112       20       24 1
     113       20       21 1
     114       48       49 1
     115       69       70 1
     116       97       98 1
     117      133      134 1
     118       84       85 1
     119       33       35 1
     120      106      108 1
     121       30       31 1
     122       36       28 1
     123       20       23 1
     124       51       53 1
     125       33       34 1
     126      121      123 1
     127        2        4 1
     128      130      132 1
     129      121      124 1
     130       29       28 1
     131      103      104 1
     132      139      140 1
     133       17       14 1
     134       94       95 1
     135       32       31 1
     136       57       60 1
     137       48       50 1
     138       57       59 1
     139       51       52 1
     140       16       14 1
     141       40       41 1
@<TRIPOS>SUBSTRUCTURE
       1 DSPC            1 RESIDUE    0 **** ROOT      0
