@<TRIPOS>MOLECULE
DSPC
142 141 1 0 1
SMALL
NO_CHARGES
@<TRIPOS>CRYSIN
   17.7943    12.5120    33.8593    90.0000    90.0000    90.0000  1  1
@<TRIPOS>ATOM
       1 N            6.9014     3.9178     4.3883 NTL           1 DSPC    
       2 C13          7.2055     4.9625     5.4285 CTL5          1 DSPC    
       3 H13A         8.2291     5.2910     5.3443 HL            1 DSPC    
       4 H13B         7.2087     4.4137     6.3626 HL            1 DSPC    
       5 H13C         6.5569     5.8229     5.3620 HL            1 DSPC    
       6 C14          6.7245     4.5787     3.0836 CTL5          1 DSPC    
       7 H14A         7.4841     5.3054     2.8325 HL            1 DSPC    
       8 H14B         5.7471     5.0299     3.0248 HL            1 DSPC    
       9 H14C         6.6472     3.7958     2.3446 HL            1 DSPC    
      10 C15          8.0678     2.9812     4.2821 CTL5          1 DSPC    
      11 H15A         9.0629     3.4203     4.3317 HL            1 DSPC    
      12 H15B         8.0070     2.2707     3.4703 HL            1 DSPC    
      13 H15C         8.0332     2.3202     5.1371 HL            1 DSPC    
      14 C12          5.6774     3.1556     4.7490 CTL2          1 DSPC    
      15 H12A         5.8086     2.7701     5.7454 HL            1 DSPC    
      16 H12B         5.4190     2.4434     3.9786 HL            1 DSPC    
      17 C11          4.4233     4.0091     5.0607 CTL2          1 DSPC    
      18 H11A         4.6498     4.8363     5.7704 HAL2          1 DSPC    
      19 H11B         3.6030     3.4454     5.5455 HAL2          1 DSPC    
      20 P            2.7137     3.9850     2.9654 PL            1 DSPC    
      21 O13          2.8050     4.5821     1.6443 O2L           1 DSPC    
      22 O14          1.4360     4.0694     3.7466 O2L           1 DSPC    
      23 O11          3.1574     2.4477     2.8809 OSLP          1 DSPC    
      24 O12          3.8238     4.6196     3.8958 OSLP          1 DSPC    
      25 C1           3.9335     1.9632     1.7800 CTL2          1 DSPC    
      26 HA           4.3473     0.9541     1.9752 HAL2          1 DSPC    
      27 HB           4.8200     2.6240     1.7892 HAL2          1 DSPC    
      28 C2           3.1582     1.8991     0.4483 CTL1          1 DSPC    
      29 HS           2.7921     2.9297     0.2112 HAL1          1 DSPC    
      30 O21          2.1476     0.8158     0.5103 OSL           1 DSPC    
      31 C21          0.9325     1.2169     0.0726 CL            1 DSPC    
      32 O22          0.6021     2.3141    -0.2470 OBL           1 DSPC    
      33 C22          0.0000     0.0000     0.0000 CTL2          1 DSPC    
      34 H2R         -0.7745     0.1597     0.7862 HAL2          1 DSPC    
      35 H2S          0.5688    -0.9295     0.2381 HAL2          1 DSPC    
      36 C3           4.0199     1.6497    -0.7896 CTL2          1 DSPC    
      37 HX           4.5473     0.6807    -0.7020 HAL2          1 DSPC    
      38 HY           4.8311     2.3977    -0.7354 HAL2          1 DSPC    
      39 O31          3.2825     1.6979    -2.0422 OSL           1 DSPC    
      40 C31          3.1314     2.9693    -2.4308 CL            1 DSPC    
      41 O32          3.7205     3.9579    -2.0365 OBL           1 DSPC    
      42 C32          1.8850     3.0034    -3.3565 CTL2          1 DSPC    
      43 H2X          0.9573     2.7797    -2.7859 HAL2          1 DSPC    
      44 H2Y          2.1271     2.2361    -4.1202 HAL2          1 DSPC    
      45 C23         -0.6318     0.0131    -1.3102 CTL2          1 DSPC    
      46 H3R         -1.0608     1.0009    -1.5741 HAL2          1 DSPC    
      47 H3S         -1.5222    -0.6595    -1.2275 HAL2          1 DSPC    
      48 C24          0.1206    -0.5205    -2.4489 CTL2          1 DSPC    
      49 H4R          0.4536    -1.5556    -2.2539 HAL2          1 DSPC    
      50 H4S          0.9761     0.1240    -2.7380 HAL2          1 DSPC    
      51 C25         -0.8139    -0.4991    -3.6436 CTL2          1 DSPC    
      52 H5R         -1.5019     0.3759    -3.7044 HAL2          1 DSPC    
      53 H5S         -1.4324    -1.4144    -3.7600 HAL2          1 DSPC    
      54 C26         -0.0441    -0.6629    -4.9300 CTL2          1 DSPC    
      55 H6R          0.5128    -1.6051    -5.1499 HAL2          1 DSPC    
      56 H6S          0.7971     0.0551    -5.0144 HAL2          1 DSPC    
      57 C27         -0.9733    -0.4504    -6.1065 CTL2          1 DSPC    
      58 H7R         -1.4120     0.5478    -5.9331 HAL2          1 DSPC    
      59 H7S         -1.7907    -1.2183    -6.0993 HAL2          1 DSPC    
      60 C28         -0.2179    -0.5995    -7.4613 CTL2          1 DSPC    
      61 H8R          0.0242    -1.6803    -7.5524 HAL2          1 DSPC    
      62 H8S          0.6901     0.0341    -7.5678 HAL2          1 DSPC    
      63 C29         -1.1200    -0.1798    -8.5960 CTL2          1 DSPC    
      64 H9R         -1.4594     0.8721    -8.4539 HAL2          1 DSPC    
      65 H9S         -2.0456    -0.8038    -8.6021 HAL2          1 DSPC    
      66 C210        -0.4438    -0.2828    -9.9504 CTL2          1 DSPC    
      67 H10R        -0.0455    -1.2623   -10.2765 HAL2          1 DSPC    
      68 H10S         0.3903     0.4195   -10.1318 HAL2          1 DSPC    
      69 C211        -1.5341     0.0210   -11.0176 CTL2          1 DSPC    
      70 H11R        -2.0668     0.9565   -10.7354 HAL2          1 DSPC    
      71 H11S        -2.2449    -0.8238   -11.0407 HAL2          1 DSPC    
      72 C212        -0.8731     0.2264   -12.3930 CTL2          1 DSPC    
      73 H12R        -0.1887     1.1003   -12.4706 HAL2          1 DSPC    
      74 H12S        -0.2498    -0.6444   -12.6891 HAL2          1 DSPC    
      75 C213        -1.9726     0.4663   -13.4296 CTL2          1 DSPC    
      76 H13R        -2.5077     1.4022   -13.1834 HAL2          1 DSPC    
      77 H13S        -2.7327    -0.3342   -13.3099 HAL2          1 DSPC    
      78 C214        -1.5178     0.5823   -14.8611 CTL2          1 DSPC    
      79 H14R        -2.2847     1.0700   -15.5124 HAL2          1 DSPC    
      80 H14S        -0.7136     1.3452   -14.9120 HAL2          1 DSPC    
      81 C215        -0.9313    -0.7100   -15.4174 CTL2          1 DSPC    
      82 H15R        -0.2040    -1.0758   -14.6510 HAL2          1 DSPC    
      83 H15S        -1.7748    -1.4265   -15.5135 HAL2          1 DSPC    
      84 C216        -0.0791    -0.6756   -16.7325 CTL2          1 DSPC    
      85 H16R         0.3151    -1.6891   -16.9642 HAL2          1 DSPC    
      86 H16S         0.8347    -0.1175   -16.4426 HAL2          1 DSPC    
      87 C217        -0.8674    -0.0863   -17.8679 CTL2          1 DSPC    
      88 H17R        -1.0918     0.9447   -17.5060 HAL2          1 DSPC    
      89 H17S        -1.7844    -0.6896   -18.0440 HAL2          1 DSPC    
      90 C218        -0.0000    -0.0000   -19.1224 CTL3          1 DSPC    
      91 H18R        -0.4579     0.6899   -19.8598 HAL3          1 DSPC    
      92 H18S         0.1233    -1.0399   -19.4941 HAL3          1 DSPC    
      93 H18T         1.0012     0.3869   -18.8235 HAL3          1 DSPC    
      94 C33          1.7130     4.3195    -4.0602 CTL2          1 DSPC    
      95 H3X          2.4720     4.4460    -4.8648 HAL2          1 DSPC    
      96 H3Y          1.8158     5.0456    -3.2262 HAL2          1 DSPC    
      97 C34          0.2723     4.5063    -4.5067 CTL2          1 DSPC    
      98 H4X          0.2359     5.6040    -4.6353 HAL2          1 DSPC    
      99 H4Y         -0.4251     4.3032    -3.6571 HAL2          1 DSPC    
     100 C35         -0.2812     3.8072    -5.7765 CTL2          1 DSPC    
     101 H5X         -1.3737     3.7068    -5.5964 HAL2          1 DSPC    
     102 H5Y          0.1996     2.8162    -5.9222 HAL2          1 DSPC    
     103 C36         -0.0482     4.6865    -7.0184 CTL2          1 DSPC    
     104 H6X          1.0374     4.8617    -7.1750 HAL2          1 DSPC    
     105 H6Y         -0.5088     5.6993    -6.8767 HAL2          1 DSPC    
     106 C37         -0.5607     3.9753    -8.2716 CTL2          1 DSPC    
     107 H7X         -1.5995     3.6842    -7.9832 HAL2          1 DSPC    
     108 H7Y          0.1469     3.1177    -8.3677 HAL2          1 DSPC    
     109 C38         -0.5697     4.8292    -9.5249 CTL2          1 DSPC    
     110 H8X          0.4407     5.1930    -9.8108 HAL2          1 DSPC    
     111 H8Y         -1.2638     5.6431    -9.2217 HAL2          1 DSPC    
     112 C39         -1.0431     4.1201   -10.7948 CTL2          1 DSPC    
     113 H9X         -2.0392     3.6816   -10.5690 HAL2          1 DSPC    
     114 H9Y         -0.2035     3.3986   -10.9070 HAL2          1 DSPC    
     115 C310        -1.1469     4.9460   -12.1057 CTL2          1 DSPC    
     116 H10X        -0.1226     5.3801   -12.2111 HAL2          1 DSPC    
     117 H10Y        -2.0136     5.6205   -11.9365 HAL2          1 DSPC    
     118 C311        -1.4606     4.1251   -13.3515 CTL2          1 DSPC    
     119 H11X        -2.4201     3.5889   -13.1487 HAL2          1 DSPC    
     120 H11Y        -0.7073     3.3339   -13.5307 HAL2          1 DSPC    
     121 C312        -1.6823     4.9477   -14.6266 CTL2          1 DSPC    
     122 H12X        -0.7639     5.5349   -14.8594 HAL2          1 DSPC    
     123 H12Y        -2.5252     5.6736   -14.7087 HAL2          1 DSPC    
     124 C313        -1.8744     4.0490   -15.8315 CTL2          1 DSPC    
     125 H13X        -2.8911     3.6066   -15.7573 HAL2          1 DSPC    
     126 H13Y        -1.0948     3.2675   -15.9234 HAL2          1 DSPC    
     127 C314        -2.0043     4.7871   -17.2027 CTL2          1 DSPC    
     128 H14X        -1.4079     5.6972   -17.4045 HAL2          1 DSPC    
     129 H14Y        -3.0774     5.0825   -17.2953 HAL2          1 DSPC    
     130 C315        -1.7567     3.8765   -18.4241 CTL2          1 DSPC    
     131 H15X        -1.9213     2.8098   -18.1673 HAL2          1 DSPC    
     132 H15Y        -0.7025     4.0510   -18.7454 HAL2          1 DSPC    
     133 C316        -2.6624     4.2772   -19.6060 CTL2          1 DSPC    
     134 H16X        -2.4923     5.3277   -19.9245 HAL2          1 DSPC    
     135 H16Y        -3.7314     4.1036   -19.3560 HAL2          1 DSPC    
     136 C317        -2.3768     3.4105   -20.8714 CTL2          1 DSPC    
     137 H17X        -2.4689     2.3337   -20.5780 HAL2          1 DSPC    
     138 H17Y        -3.1374     3.6495   -21.6478 HAL2          1 DSPC    
     139 C318        -1.0064     3.5368   -21.5346 CTL3          1 DSPC    
     140 H18X        -0.6659     4.5796   -21.7065 HAL3          1 DSPC    
     141 H18Y        -0.2240     3.1621   -20.8388 HAL3          1 DSPC    
     142 H18Z        -0.9644     2.9696   -22.4967 HAL3          1 DSPC    
@<TRIPOS>BOND
       1        1        6 1
       2        1       10 1
       3      115      116 1
       4      109      110 1
       5       51       53 1
       6       57       60 1
       7       63       66 1
       8       94       96 1
       9       25       23 1
      10      109      112 1
      11      118      120 1
      12       51       52 1
      13       31       30 1
      14       17       14 1
      15       72       74 1
      16      121      122 1
      17      124      125 1
      18       36       39 1
      19      127      129 1
      20       36       38 1
      21       57       58 1
      22      118      121 1
      23       36       37 1
      24      130      132 1
      25      106      108 1
      26       84       86 1
      27       15       14 1
      28       60       61 1
      29        1        2 1
      30       13       10 1
      31       30       28 1
      32      103      105 1
      33       28       25 1
      34       94       95 1
      35      112      113 1
      36        7        6 1
      37       69       71 1
      38      139      141 1
      39       40       41 1
      40        9        6 1
      41       60       63 1
      42       72       73 1
      43      136      139 1
      44      100      103 1
      45      121      124 1
      46       16       14 1
      47       42       43 1
      48       45       48 1
      49      139      142 1
      50      106      109 1
      51        8        6 1
      52      103      106 1
      53       54       56 1
      54       45       47 1
      55       20       24 1
      56      109      111 1
      57       75       76 1
      58      124      126 1
      59       54       57 1
      60       69       72 1
      61      124      127 1
      62       87       90 1
      63      130      133 1
      64        2        4 1
      65       45       46 1
      66       81       82 1
      67      121      123 1
      68      133      136 1
      69       97      100 1
      70       90       92 1
      71       66       69 1
      72      112      114 1
      73       75       77 1
      74       60       62 1
      75       27       25 1
      76      115      118 1
      77       26       25 1
      78      127      128 1
      79       78       80 1
      80       17       19 1
      81       66       67 1
      82       94       97 1
      83        2        5 1
      84       20       23 1
      85       54       55 1
      86       20       22 1
      87       33       35 1
      88       90       93 1
      89       48       49 1
      90      103      104 1
      91      115      117 1
      92      139      140 1
      93      136      137 1
      94      100      101 1
      95       81       83 1
      96       48       51 1
      97       97       99 1
      98      133      135 1
      99       17       18 1
     100       66       68 1
     101       81       84 1
     102       42       44 1
     103       97       98 1
     104      133      134 1
     105       20       21 1
     106       29       28 1
     107       72       75 1
     108       87       88 1
     109        1       14 1
     110       84       85 1
     111       48       50 1
     112       17       24 1
     113      127      130 1
     114       39       40 1
     115      136      138 1
     116      100      102 1
     117       51       54 1
     118       63       64 1
     119       42       94 1
     120      106      107 1
     121      118      119 1
     122       33       34 1
     123       78       79 1
     124       33       45 1
     125       69       70 1
     126       57       59 1
     127      130      131 1
     128      112      115 1
     129       87       89 1
     130       84       87 1
     131       36       28 1
     132        3        2 1
     133       75       78 1
     134       63       65 1
     135       90       91 1
     136       40       42 1
     137       33       31 1
     138       78       81 1
     139       11       10 1
     140       32       31 1
     141       12       10 1
@<TRIPOS>SUBSTRUCTURE
       1 DSPC            1 RESIDUE    0 **** ROOT      0
