@<TRIPOS>MOLECULE
DSPC
142 141 1 0 1
SMALL
NO_CHARGES
@<TRIPOS>CRYSIN
   17.7943    12.5120    33.8593    90.0000    90.0000    90.0000  1  1
@<TRIPOS>ATOM
       1 NTL          6.9014     3.9178     4.3883 NTL           1 DSPC    
       2 CTL5         7.2055     4.9625     5.4285 CTL5          1 DSPC    
       3 HL           8.2291     5.2910     5.3443 HL            1 DSPC    
       4 HL           7.2087     4.4137     6.3626 HL            1 DSPC    
       5 HL           6.5569     5.8229     5.3620 HL            1 DSPC    
       6 CTL5         6.7245     4.5787     3.0836 CTL5          1 DSPC    
       7 HL           7.4841     5.3054     2.8325 HL            1 DSPC    
       8 HL           5.7471     5.0299     3.0248 HL            1 DSPC    
       9 HL           6.6472     3.7958     2.3446 HL            1 DSPC    
      10 CTL5         8.0678     2.9812     4.2821 CTL5          1 DSPC    
      11 HL           9.0629     3.4203     4.3317 HL            1 DSPC    
      12 HL           8.0070     2.2707     3.4703 HL            1 DSPC    
      13 HL           8.0332     2.3202     5.1371 HL            1 DSPC    
      14 CTL2         5.6774     3.1556     4.7490 CTL2          1 DSPC    
      15 HL           5.8086     2.7701     5.7454 HL            1 DSPC    
      16 HL           5.4190     2.4434     3.9786 HL            1 DSPC    
      17 CTL2         4.4233     4.0091     5.0607 CTL2          1 DSPC    
      18 HAL2         4.6498     4.8363     5.7704 HAL2          1 DSPC    
      19 HAL2         3.6030     3.4454     5.5455 HAL2          1 DSPC    
      20 PL           2.7137     3.9850     2.9654 PL            1 DSPC    
      21 O2L          2.8050     4.5821     1.6443 O2L           1 DSPC    
      22 O2L          1.4360     4.0694     3.7466 O2L           1 DSPC    
      23 OSLP         3.1574     2.4477     2.8809 OSLP          1 DSPC    
      24 OSLP         3.8238     4.6196     3.8958 OSLP          1 DSPC    
      25 CTL2         3.9335     1.9632     1.7800 CTL2          1 DSPC    
      26 HAL2         4.3473     0.9541     1.9752 HAL2          1 DSPC    
      27 HAL2         4.8200     2.6240     1.7892 HAL2          1 DSPC    
      28 CTL1         3.1582     1.8991     0.4483 CTL1          1 DSPC    
      29 HAL1         2.7921     2.9297     0.2112 HAL1          1 DSPC    
      30 OSL          2.1476     0.8158     0.5103 OSL           1 DSPC    
      31 CL           0.9325     1.2169     0.0726 CL            1 DSPC    
      32 OBL          0.6021     2.3141    -0.2470 OBL           1 DSPC    
      33 CTL2         0.0000     0.0000     0.0000 CTL2          1 DSPC    
      34 HAL2        -0.7745     0.1597     0.7862 HAL2          1 DSPC    
      35 HAL2         0.5688    -0.9295     0.2381 HAL2          1 DSPC    
      36 CTL2         4.0199     1.6497    -0.7896 CTL2          1 DSPC    
      37 HAL2         4.5473     0.6807    -0.7020 HAL2          1 DSPC    
      38 HAL2         4.8311     2.3977    -0.7354 HAL2          1 DSPC    
      39 OSL          3.2825     1.6979    -2.0422 OSL           1 DSPC    
      40 CL           3.1314     2.9693    -2.4308 CL            1 DSPC    
      41 OBL          3.7205     3.9579    -2.0365 OBL           1 DSPC    
      42 CTL2         1.8850     3.0034    -3.3565 CTL2          1 DSPC    
      43 HAL2         0.9573     2.7797    -2.7859 HAL2          1 DSPC    
      44 HAL2         2.1271     2.2361    -4.1202 HAL2          1 DSPC    
      45 CTL2        -0.6318     0.0131    -1.3102 CTL2          1 DSPC    
      46 HAL2        -1.0608     1.0009    -1.5741 HAL2          1 DSPC    
      47 HAL2        -1.5222    -0.6595    -1.2275 HAL2          1 DSPC    
      48 CTL2         0.1206    -0.5205    -2.4489 CTL2          1 DSPC    
      49 HAL2         0.4536    -1.5556    -2.2539 HAL2          1 DSPC    
      50 HAL2         0.9761     0.1240    -2.7380 HAL2          1 DSPC    
      51 CTL2        -0.8139    -0.4991    -3.6436 CTL2          1 DSPC    
      52 HAL2        -1.5019     0.3759    -3.7044 HAL2          1 DSPC    
      53 HAL2        -1.4324    -1.4144    -3.7600 HAL2          1 DSPC    
      54 CTL2        -0.0441    -0.6629    -4.9300 CTL2          1 DSPC    
      55 HAL2         0.5128    -1.6051    -5.1499 HAL2          1 DSPC    
      56 HAL2         0.7971     0.0551    -5.0144 HAL2          1 DSPC    
      57 CTL2        -0.9733    -0.4504    -6.1065 CTL2          1 DSPC    
      58 HAL2        -1.4120     0.5478    -5.9331 HAL2          1 DSPC    
      59 HAL2        -1.7907    -1.2183    -6.0993 HAL2          1 DSPC    
      60 CTL2        -0.2179    -0.5995    -7.4613 CTL2          1 DSPC    
      61 HAL2         0.0242    -1.6803    -7.5524 HAL2          1 DSPC    
      62 HAL2         0.6901     0.0341    -7.5678 HAL2          1 DSPC    
      63 CTL2        -1.1200    -0.1798    -8.5960 CTL2          1 DSPC    
      64 HAL2        -1.4594     0.8721    -8.4539 HAL2          1 DSPC    
      65 HAL2        -2.0456    -0.8038    -8.6021 HAL2          1 DSPC    
      66 CTL2        -0.4438    -0.2828    -9.9504 CTL2          1 DSPC    
      67 HAL2        -0.0455    -1.2623   -10.2765 HAL2          1 DSPC    
      68 HAL2         0.3903     0.4195   -10.1318 HAL2          1 DSPC    
      69 CTL2        -1.5341     0.0210   -11.0176 CTL2          1 DSPC    
      70 HAL2        -2.0668     0.9565   -10.7354 HAL2          1 DSPC    
      71 HAL2        -2.2449    -0.8238   -11.0407 HAL2          1 DSPC    
      72 CTL2        -0.8731     0.2264   -12.3930 CTL2          1 DSPC    
      73 HAL2        -0.1887     1.1003   -12.4706 HAL2          1 DSPC    
      74 HAL2        -0.2498    -0.6444   -12.6891 HAL2          1 DSPC    
      75 CTL2        -1.9726     0.4663   -13.4296 CTL2          1 DSPC    
      76 HAL2        -2.5077     1.4022   -13.1834 HAL2          1 DSPC    
      77 HAL2        -2.7327    -0.3342   -13.3099 HAL2          1 DSPC    
      78 CTL2        -1.5178     0.5823   -14.8611 CTL2          1 DSPC    
      79 HAL2        -2.2847     1.0700   -15.5124 HAL2          1 DSPC    
      80 HAL2        -0.7136     1.3452   -14.9120 HAL2          1 DSPC    
      81 CTL2        -0.9313    -0.7100   -15.4174 CTL2          1 DSPC    
      82 HAL2        -0.2040    -1.0758   -14.6510 HAL2          1 DSPC    
      83 HAL2        -1.7748    -1.4265   -15.5135 HAL2          1 DSPC    
      84 CTL2        -0.0791    -0.6756   -16.7325 CTL2          1 DSPC    
      85 HAL2         0.3151    -1.6891   -16.9642 HAL2          1 DSPC    
      86 HAL2         0.8347    -0.1175   -16.4426 HAL2          1 DSPC    
      87 CTL2        -0.8674    -0.0863   -17.8679 CTL2          1 DSPC    
      88 HAL2        -1.0918     0.9447   -17.5060 HAL2          1 DSPC    
      89 HAL2        -1.7844    -0.6896   -18.0440 HAL2          1 DSPC    
      90 CTL3        -0.0000     0.0000   -19.1224 CTL3          1 DSPC    
      91 HAL3        -0.4579     0.6899   -19.8598 HAL3          1 DSPC    
      92 HAL3         0.1233    -1.0399   -19.4941 HAL3          1 DSPC    
      93 HAL3         1.0012     0.3869   -18.8235 HAL3          1 DSPC    
      94 CTL2         1.7130     4.3195    -4.0602 CTL2          1 DSPC    
      95 HAL2         2.4720     4.4460    -4.8648 HAL2          1 DSPC    
      96 HAL2         1.8158     5.0456    -3.2262 HAL2          1 DSPC    
      97 CTL2         0.2723     4.5063    -4.5067 CTL2          1 DSPC    
      98 HAL2         0.2359     5.6040    -4.6353 HAL2          1 DSPC    
      99 HAL2        -0.4251     4.3032    -3.6571 HAL2          1 DSPC    
     100 CTL2        -0.2812     3.8072    -5.7765 CTL2          1 DSPC    
     101 HAL2        -1.3737     3.7068    -5.5964 HAL2          1 DSPC    
     102 HAL2         0.1996     2.8162    -5.9222 HAL2          1 DSPC    
     103 CTL2        -0.0482     4.6865    -7.0184 CTL2          1 DSPC    
     104 HAL2         1.0374     4.8617    -7.1750 HAL2          1 DSPC    
     105 HAL2        -0.5088     5.6993    -6.8767 HAL2          1 DSPC    
     106 CTL2        -0.5607     3.9753    -8.2716 CTL2          1 DSPC    
     107 HAL2        -1.5995     3.6842    -7.9832 HAL2          1 DSPC    
     108 HAL2         0.1469     3.1177    -8.3677 HAL2          1 DSPC    
     109 CTL2        -0.5697     4.8292    -9.5249 CTL2          1 DSPC    
     110 HAL2         0.4407     5.1930    -9.8108 HAL2          1 DSPC    
     111 HAL2        -1.2638     5.6431    -9.2217 HAL2          1 DSPC    
     112 CTL2        -1.0431     4.1201   -10.7948 CTL2          1 DSPC    
     113 HAL2        -2.0392     3.6816   -10.5690 HAL2          1 DSPC    
     114 HAL2        -0.2035     3.3986   -10.9070 HAL2          1 DSPC    
     115 CTL2        -1.1469     4.9460   -12.1057 CTL2          1 DSPC    
     116 HAL2        -0.1226     5.3801   -12.2111 HAL2          1 DSPC    
     117 HAL2        -2.0136     5.6205   -11.9365 HAL2          1 DSPC    
     118 CTL2        -1.4606     4.1251   -13.3515 CTL2          1 DSPC    
     119 HAL2        -2.4201     3.5889   -13.1487 HAL2          1 DSPC    
     120 HAL2        -0.7073     3.3339   -13.5307 HAL2          1 DSPC    
     121 CTL2        -1.6823     4.9477   -14.6266 CTL2          1 DSPC    
     122 HAL2        -0.7639     5.5349   -14.8594 HAL2          1 DSPC    
     123 HAL2        -2.5252     5.6736   -14.7087 HAL2          1 DSPC    
     124 CTL2        -1.8744     4.0490   -15.8315 CTL2          1 DSPC    
     125 HAL2        -2.8911     3.6066   -15.7573 HAL2          1 DSPC    
     126 HAL2        -1.0948     3.2675   -15.9234 HAL2          1 DSPC    
     127 CTL2        -2.0043     4.7871   -17.2027 CTL2          1 DSPC    
     128 HAL2        -1.4079     5.6972   -17.4045 HAL2          1 DSPC    
     129 HAL2        -3.0774     5.0825   -17.2953 HAL2          1 DSPC    
     130 CTL2        -1.7567     3.8765   -18.4241 CTL2          1 DSPC    
     131 HAL2        -1.9213     2.8098   -18.1673 HAL2          1 DSPC    
     132 HAL2        -0.7025     4.0510   -18.7454 HAL2          1 DSPC    
     133 CTL2        -2.6624     4.2772   -19.6060 CTL2          1 DSPC    
     134 HAL2        -2.4923     5.3277   -19.9245 HAL2          1 DSPC    
     135 HAL2        -3.7314     4.1036   -19.3560 HAL2          1 DSPC    
     136 CTL2        -2.3768     3.4105   -20.8714 CTL2          1 DSPC    
     137 HAL2        -2.4689     2.3337   -20.5780 HAL2          1 DSPC    
     138 HAL2        -3.1374     3.6495   -21.6478 HAL2          1 DSPC    
     139 CTL3        -1.0064     3.5368   -21.5346 CTL3          1 DSPC    
     140 HAL3        -0.6659     4.5796   -21.7065 HAL3          1 DSPC    
     141 HAL3        -0.2240     3.1621   -20.8388 HAL3          1 DSPC    
     142 HAL3        -0.9644     2.9696   -22.4967 HAL3          1 DSPC    
@<TRIPOS>BOND
       1      127      128 1
       2       66       69 1
       3       36       39 1
       4       72       75 1
       5       94       96 1
       6      130      132 1
       7        1        2 1
       8       81       83 1
       9       45       47 1
      10       25       26 1
      11      133      134 1
      12       97       98 1
      13       28       29 1
      14      136      137 1
      15      100      101 1
      16      103      105 1
      17       31       33 1
      18      139      141 1
      19       66       67 1
      20       30       31 1
      21       94       97 1
      22      130      133 1
      23      106      108 1
      24       10       12 1
      25      118      120 1
      26       57       59 1
      27       33       45 1
      28       69       70 1
      29       33       34 1
      30      115      117 1
      31      124      125 1
      32        6        8 1
      33       42       44 1
      34       78       80 1
      35       94       42 1
      36       69       72 1
      37       81       82 1
      38       45       46 1
      39      112      115 1
      40       97      100 1
      41       25       28 1
      42      133      136 1
      43      118      121 1
      44       10       13 1
      45      115      118 1
      46       48       49 1
      47       84       85 1
      48      136      138 1
      49       28       30 1
      50      100      102 1
      51       78       81 1
      52        6        9 1
      53      136      139 1
      54      100      103 1
      55       60       63 1
      56      106      109 1
      57       54       55 1
      58      133      135 1
      59       97       99 1
      60       25       27 1
      61       90       91 1
      62      109      112 1
      63       63       66 1
      64       14       15 1
      65       75       78 1
      66      124      126 1
      67       84       86 1
      68       69       71 1
      69       33       35 1
      70       63       65 1
      71      127      130 1
      72      103      104 1
      73       87       89 1
      74       31       32 1
      75       51       53 1
      76      139      140 1
      77      121      122 1
      78       39       40 1
      79       75       76 1
      80       17       18 1
      81       51       48 1
      82       17       24 1
      83      121      124 1
      84       50       48 1
      85       20       21 1
      86      115      116 1
      87      127      129 1
      88      112      113 1
      89       40       41 1
      90       54       56 1
      91       90       92 1
      92      109      111 1
      93       20       23 1
      94       75       77 1
      95       90       93 1
      96       54       57 1
      97        1       10 1
      98      109      110 1
      99        3        2 1
     100       20       22 1
     101       81       84 1
     102       45       48 1
     103       60       61 1
     104       14       16 1
     105       57       58 1
     106        4        2 1
     107      139      142 1
     108       40       42 1
     109      103      106 1
     110      112      114 1
     111       36       37 1
     112       72       73 1
     113       23       25 1
     114       10       11 1
     115      118      119 1
     116      121      123 1
     117       20       24 1
     118        1        6 1
     119       94       95 1
     120       17       19 1
     121      130      131 1
     122       28       36 1
     123        2        5 1
     124       51       52 1
     125       87       88 1
     126       42       43 1
     127        6        7 1
     128       78       79 1
     129       66       68 1
     130      106      107 1
     131       14        1 1
     132      124      127 1
     133       60       62 1
     134       14       17 1
     135       57       60 1
     136       84       87 1
     137       72       74 1
     138       63       64 1
     139       36       38 1
     140       51       54 1
     141       87       90 1
@<TRIPOS>SUBSTRUCTURE
       1 DSPC            1 RESIDUE    0 **** ROOT      0
