@<TRIPOS>MOLECULE
DSPC
142 141 1 0 1
SMALL
NO_CHARGES
@<TRIPOS>CRYSIN
   19.0199    13.1131    33.3291    90.0000    90.0000    90.0000  1  1
@<TRIPOS>ATOM
       1 NTL          8.1894     4.5482    22.9779 NTL           1 DSPC    
       2 CTL5         8.5623     5.6203    23.9664 CTL5          1 DSPC    
       3 HL           9.5844     5.9303    23.8182 HL            1 DSPC    
       4 HL           8.6075     5.1012    24.9163 HL            1 DSPC    
       5 HL           7.9229     6.4881    23.9065 HL            1 DSPC    
       6 CTL5         7.9526     5.1705    21.6636 CTL5          1 DSPC    
       7 HL           8.7077     5.8772    21.3498 HL            1 DSPC    
       8 HL           6.9798     5.6345    21.6417 HL            1 DSPC    
       9 HL           7.8256     4.3660    20.9552 HL            1 DSPC    
      10 CTL5         9.3356     3.5910    22.8407 CTL5          1 DSPC    
      11 HL          10.3378     4.0160    22.8239 HL            1 DSPC    
      12 HL           9.2222     2.8563    22.0565 HL            1 DSPC    
      13 HL           9.3372     2.9577    23.7172 HL            1 DSPC    
      14 CTL2         6.9759     3.8166    23.4266 CTL2          1 DSPC    
      15 HL           7.1544     3.4606    24.4266 HL            1 DSPC    
      16 HL           6.6673     3.0846    22.6942 HL            1 DSPC    
      17 CTL2         5.7518     4.6986    23.7761 CTL2          1 DSPC    
      18 HAL2         6.0269     5.5441    24.4459 HAL2          1 DSPC    
      19 HAL2         4.9507     4.1631    24.3212 HAL2          1 DSPC    
      20 PL           3.9335     4.6349    21.7752 PL            1 DSPC    
      21 O2L          3.9629     5.1888    20.4326 O2L           1 DSPC    
      22 O2L          2.7003     4.7634    22.6193 O2L           1 DSPC    
      23 OSLP         4.3510     3.0891    21.7171 OSLP          1 DSPC    
      24 OSLP         5.0999     5.2813    22.6252 OSLP          1 DSPC    
      25 CTL2         5.0610     2.5584    20.5932 CTL2          1 DSPC    
      26 HAL2         5.4708     1.5497    20.7987 HAL2          1 DSPC    
      27 HAL2         5.9558     3.2055    20.5345 HAL2          1 DSPC    
      28 CTL1         4.2156     2.4644    19.3067 CTL1          1 DSPC    
      29 HAL1         3.8515     3.4925    19.0561 HAL1          1 DSPC    
      30 OSL          3.1949     1.3993    19.4565 OSL           1 DSPC    
      31 CL           1.9639     1.8050    19.0705 CL            1 DSPC    
      32 OBL          1.6321     2.8965    18.7335 OBL           1 DSPC    
      33 CTL2         1.0124     0.6008    19.0861 CTL2          1 DSPC    
      34 HAL2         0.2829     0.7970    19.9063 HAL2          1 DSPC    
      35 HAL2         1.5803    -0.3294    19.3238 HAL2          1 DSPC    
      36 CTL2         5.0070     2.1630    18.0340 CTL2          1 DSPC    
      37 HAL2         5.5251     1.1893    18.1249 HAL2          1 DSPC    
      38 HAL2         5.8301     2.8999    18.0214 HAL2          1 DSPC    
      39 OSL          4.2050     2.1831    16.8209 OSL           1 DSPC    
      40 CL           4.0510     3.4439    16.4000 CL            1 DSPC    
      41 OBL          4.6736     4.4352    16.7309 OBL           1 DSPC    
      42 CTL2         2.7579     3.4680    15.5404 CTL2          1 DSPC    
      43 HAL2         1.8588     3.2767    16.1658 HAL2          1 DSPC    
      44 HAL2         2.9487     2.6735    14.7901 HAL2          1 DSPC    
      45 CTL2         0.3123     0.5825    17.8111 CTL2          1 DSPC    
      46 HAL2        -0.1165     1.5680    17.5385 HAL2          1 DSPC    
      47 HAL2        -0.5816    -0.0734    17.9620 HAL2          1 DSPC    
      48 CTL2         0.9960     0.0019    16.6523 CTL2          1 DSPC    
      49 HAL2         1.3247    -1.0316    16.8627 HAL2          1 DSPC    
      50 HAL2         1.8438     0.6238    16.2982 HAL2          1 DSPC    
      51 CTL2        -0.0000    -0.0000    15.5082 CTL2          1 DSPC    
      52 HAL2        -0.6782     0.8832    15.4555 HAL2          1 DSPC    
      53 HAL2        -0.6362    -0.9089    15.4540 HAL2          1 DSPC    
      54 CTL2         0.6983    -0.2159    14.1892 CTL2          1 DSPC    
      55 HAL2         1.2299    -1.1729    13.9707 HAL2          1 DSPC    
      56 HAL2         1.5435     0.4861    14.0376 HAL2          1 DSPC    
      57 CTL2        -0.2889    -0.0263    13.0568 CTL2          1 DSPC    
      58 HAL2        -0.7041     0.9836    13.2208 HAL2          1 DSPC    
      59 HAL2        -1.1152    -0.7809    13.1316 HAL2          1 DSPC    
      60 CTL2         0.3916    -0.2294    11.6698 CTL2          1 DSPC    
      61 HAL2         0.6137    -1.3161    11.6008 HAL2          1 DSPC    
      62 HAL2         1.3013     0.3865    11.4954 HAL2          1 DSPC    
      63 CTL2        -0.5635     0.1682    10.5710 CTL2          1 DSPC    
      64 HAL2        -0.8805     1.2291    10.6968 HAL2          1 DSPC    
      65 HAL2        -1.4966    -0.4414    10.6335 HAL2          1 DSPC    
      66 CTL2         0.0386     0.0123     9.1870 CTL2          1 DSPC    
      67 HAL2         0.4057    -0.9829     8.8721 HAL2          1 DSPC    
      68 HAL2         0.8714     0.6958     8.9396 HAL2          1 DSPC    
      69 CTL2        -1.1024     0.2992     8.1692 CTL2          1 DSPC    
      70 HAL2        -1.6066     1.2512     8.4487 HAL2          1 DSPC    
      71 HAL2        -1.8249    -0.5349     8.2107 HAL2          1 DSPC    
      72 CTL2        -0.5124     0.4511     6.7552 CTL2          1 DSPC    
      73 HAL2         0.1788     1.3115     6.6137 HAL2          1 DSPC    
      74 HAL2         0.0824    -0.4380     6.4549 HAL2          1 DSPC    
      75 CTL2        -1.6619     0.6752     5.7705 CTL2          1 DSPC    
      76 HAL2        -2.1704     1.6265     6.0142 HAL2          1 DSPC    
      77 HAL2        -2.4255    -0.1094     5.9557 HAL2          1 DSPC    
      78 CTL2        -1.2820     0.7391     4.3141 CTL2          1 DSPC    
      79 HAL2        -2.0756     1.2178     3.6886 HAL2          1 DSPC    
      80 HAL2        -0.4712     1.4876     4.1966 HAL2          1 DSPC    
      81 CTL2        -0.7434    -0.5789     3.7697 CTL2          1 DSPC    
      82 HAL2         0.0183    -0.9315     4.5083 HAL2          1 DSPC    
      83 HAL2        -1.6006    -1.2850     3.7411 HAL2          1 DSPC    
      84 CTL2         0.0383    -0.5989     2.4112 CTL2          1 DSPC    
      85 HAL2         0.4058    -1.6250     2.1919 HAL2          1 DSPC    
      86 HAL2         0.9738    -0.0461     2.6347 HAL2          1 DSPC    
      87 CTL2        -0.8009    -0.0335     1.3004 CTL2          1 DSPC    
      88 HAL2        -0.9917     1.0116     1.6403 HAL2          1 DSPC    
      89 HAL2        -1.7340    -0.6279     1.1922 HAL2          1 DSPC    
      90 CTL3         0.0000     0.0000     0.0000 CTL3          1 DSPC    
      91 HAL3        -0.4868     0.6734    -0.7341 HAL3          1 DSPC    
      92 HAL3         0.0892    -1.0528    -0.3440 HAL3          1 DSPC    
      93 HAL3         1.0208     0.3807     0.2333 HAL3          1 DSPC    
      94 CTL2         2.5669     4.7638    14.8047 CTL2          1 DSPC    
      95 HAL2         3.2839     4.8534    13.9577 HAL2          1 DSPC    
      96 HAL2         2.7236     5.5141    15.6084 HAL2          1 DSPC    
      97 CTL2         1.1072     4.9586    14.4286 CTL2          1 DSPC    
      98 HAL2         1.0791     6.0521    14.2669 HAL2          1 DSPC    
      99 HAL2         0.4532     4.7930    15.3198 HAL2          1 DSPC    
     100 CTL2         0.4778     4.2286    13.2128 CTL2          1 DSPC    
     101 HAL2        -0.6048     4.1506    13.4531 HAL2          1 DSPC    
     102 HAL2         0.9367     3.2262    13.0741 HAL2          1 DSPC    
     103 CTL2         0.6567     5.0646    11.9327 CTL2          1 DSPC    
     104 HAL2         1.7348     5.2182    11.7138 HAL2          1 DSPC    
     105 HAL2         0.2182     6.0884    12.0658 HAL2          1 DSPC    
     106 CTL2         0.0689     4.3224    10.7317 CTL2          1 DSPC    
     107 HAL2        -0.9570     4.0565    11.0835 HAL2          1 DSPC    
     108 HAL2         0.7586     3.4515    10.6262 HAL2          1 DSPC    
     109 CTL2         0.0053     5.1365     9.4537 CTL2          1 DSPC    
     110 HAL2         1.0040     5.4756     9.1037 HAL2          1 DSPC    
     111 HAL2        -0.6606     5.9702     9.7666 HAL2          1 DSPC    
     112 CTL2        -0.5444     4.3953     8.2340 CTL2          1 DSPC    
     113 HAL2        -1.5330     3.9794     8.5257 HAL2          1 DSPC    
     114 HAL2         0.2782     3.6578     8.1011 HAL2          1 DSPC    
     115 CTL2        -0.7061     5.1810     6.9044 CTL2          1 DSPC    
     116 HAL2         0.3170     5.5959     6.7315 HAL2          1 DSPC    
     117 HAL2        -1.5534     5.8737     7.0971 HAL2          1 DSPC    
     118 CTL2        -1.0965     4.3263     5.7038 CTL2          1 DSPC    
     119 HAL2        -2.0512     3.8116     5.9739 HAL2          1 DSPC    
     120 HAL2        -0.3646     3.5184     5.5109 HAL2          1 DSPC    
     121 CTL2        -1.3741     5.1117     4.4164 CTL2          1 DSPC    
     122 HAL2        -0.4614     5.6772     4.1169 HAL2          1 DSPC    
     123 HAL2        -2.2102     5.8476     4.3553 HAL2          1 DSPC    
     124 CTL2        -1.6421     4.1787     3.2528 CTL2          1 DSPC    
     125 HAL2        -2.6593     3.7545     3.3944 HAL2          1 DSPC    
     126 HAL2        -0.8792     3.3829     3.1452 HAL2          1 DSPC    
     127 CTL2        -1.8342     4.8753     1.8672 CTL2          1 DSPC    
     128 HAL2        -1.2370     5.7693     1.6051 HAL2          1 DSPC    
     129 HAL2        -2.9066     5.1840     1.8215 HAL2          1 DSPC    
     130 CTL2        -1.6641     3.9230     0.6644 CTL2          1 DSPC    
     131 HAL2        -1.8295     2.8676     0.9637 HAL2          1 DSPC    
     132 HAL2        -0.6261     4.0712     0.2828 HAL2          1 DSPC    
     133 CTL2        -2.6255     4.3003    -0.4806 CTL2          1 DSPC    
     134 HAL2        -2.4582     5.3375    -0.8412 HAL2          1 DSPC    
     135 HAL2        -3.6821     4.1510    -0.1694 HAL2          1 DSPC    
     136 CTL2        -2.4192     3.3900    -1.7307 CTL2          1 DSPC    
     137 HAL2        -2.5104     2.3244    -1.3984 HAL2          1 DSPC    
     138 HAL2        -3.2166     3.6160    -2.4734 HAL2          1 DSPC    
     139 CTL3        -1.0843     3.4743    -2.4687 CTL3          1 DSPC    
     140 HAL3        -0.7392     4.5059    -2.6916 HAL3          1 DSPC    
     141 HAL3        -0.2714     3.1097    -1.8032 HAL3          1 DSPC    
     142 HAL3        -1.1010     2.8765    -3.4128 HAL3          1 DSPC    
@<TRIPOS>BOND
       1       97       98 1
       2       25       26 1
       3      133      134 1
       4       36       39 1
       5       72       75 1
       6       78       81 1
       7        6        9 1
       8      100      102 1
       9      136      138 1
      10       28       30 1
      11       51       53 1
      12       87       89 1
      13      139      140 1
      14       31       32 1
      15      103      104 1
      16      106      107 1
      17        2        3 1
      18      109      111 1
      19       17       18 1
      20       72       73 1
      21       36       37 1
      22      100      103 1
      23      136      139 1
      24       40       42 1
      25      112      114 1
      26      124      126 1
      27       63       65 1
      28       75       76 1
      29      121      123 1
      30       39       40 1
      31        1        6 1
      32        2        5 1
      33      130      131 1
      34       94       95 1
      35       48       50 1
      36       84       86 1
      37      128      127 1
      38       75       78 1
      39        4        2 1
      40       87       88 1
      41       51       52 1
      42       20       24 1
      43      118      121 1
      44       10       13 1
      45      103      106 1
      46      139      142 1
      47      130      127 1
      48       17       24 1
      49      124      127 1
      50      121      124 1
      51       42       94 1
      52       54       55 1
      53       90       91 1
      54        1        2 1
      55      106      108 1
      56       48       51 1
      57       84       87 1
      58      106      109 1
      59       66       69 1
      60      112      115 1
      61       60       61 1
      62      139      141 1
      63       31       33 1
      64      103      105 1
      65       28       36 1
      66      115      118 1
      67       69       72 1
      68       20       21 1
      69       81       84 1
      70       94       96 1
      71      130      132 1
      72       45       48 1
      73       90       92 1
      74       54       56 1
      75       75       77 1
      76       69       71 1
      77       33       35 1
      78       97      100 1
      79       25       28 1
      80      133      136 1
      81       57       59 1
      82      109      110 1
      83       81       82 1
      84       45       46 1
      85       33       45 1
      86      121      122 1
      87       25       27 1
      88      133      135 1
      89       97       99 1
      90       10       11 1
      91      118      119 1
      92       60       62 1
      93      115      117 1
      94       14       15 1
      95      129      127 1
      96       81       83 1
      97       45       47 1
      98       60       63 1
      99      115      116 1
     100       14       16 1
     101       14       17 1
     102       17       19 1
     103        1       10 1
     104       51       54 1
     105       87       90 1
     106       30       31 1
     107       66       67 1
     108       20       22 1
     109       63       64 1
     110      109      112 1
     111      118      120 1
     112       10       12 1
     113       78       79 1
     114       42       43 1
     115        6        7 1
     116      124      125 1
     117      100      101 1
     118       23       25 1
     119       28       29 1
     120      136      137 1
     121       57       58 1
     122       48       49 1
     123       84       85 1
     124       72       74 1
     125       36       38 1
     126       40       41 1
     127      112      113 1
     128      130      133 1
     129       66       68 1
     130       94       97 1
     131       20       23 1
     132       63       66 1
     133       54       57 1
     134       90       93 1
     135       78       80 1
     136       42       44 1
     137       69       70 1
     138       33       34 1
     139        6        8 1
     140       57       60 1
     141        1       14 1
@<TRIPOS>SUBSTRUCTURE
       1 DSPC            1 RESIDUE    0 **** ROOT      0
